/batch
/config,noeldb,1     ! force off writing results to database
*get,_wallstrt,active,,time,wall
! ANSYS input file written by Workbench version 2019 R3
! File used for geometry attach: C:\Users\pedeb\Desktop\HTE\Compliant\Compliant_Code\FEM_files\user_files\v2.SLDPRT
/title,FEM--Static Structural (B5)
*DIM,_wb_ProjectScratch_dir,string,248
_wb_ProjectScratch_dir(1) = 'C:\Users\pedeb\Desktop\HTE\Compliant\Compliant_Code\_ProjectScratch\ScrD21A\'
*DIM,_wb_SolverFiles_dir,string,248
_wb_SolverFiles_dir(1) = 'C:\Users\pedeb\Desktop\HTE\Compliant\Compliant_Code\FEM_files\dp0\SYS\MECH\'
*DIM,_wb_userfiles_dir,string,248
_wb_userfiles_dir(1) = 'C:\Users\pedeb\Desktop\HTE\Compliant\Compliant_Code\FEM_files\user_files\'
/com,--- Data in consistent NMM units. See Solving Units in the help system for more information.
/units,MPA
/nopr
/wb,file,start              !  signify a WB generated input file
/prep7
! Turn off shape checking because checks already performed inside WB mesher.
! See help system for more information.
SHPP,OFF,,NOWARN
/nolist
etcon,set             ! allow ANSYS to choose best KEYOP's for 180x elements
/com,*********** Nodes for the whole assembly ***********
nblock,3,,33249
(1i9,3e20.9e3)
        1     4.919730358E+01     4.794164772E+01     4.500000000E+00
        2     4.919730358E+01     4.794164772E+01     4.000000000E+00
        3     4.919730358E+01     4.794164772E+01     3.500000000E+00
        4     4.919730358E+01     4.794164772E+01     3.000000000E+00
        5     4.919730358E+01     4.794164772E+01     2.500000000E+00
        6     4.919730358E+01     4.794164772E+01     2.000000000E+00
        7     4.919730358E+01     4.794164772E+01     1.500000000E+00
        8     4.919730358E+01     4.794164772E+01     1.000000000E+00
        9     4.919730358E+01     4.794164772E+01     5.000000000E-01
       10     5.077805378E+01     7.658348311E+00     4.500000000E+00
       11     5.077805378E+01     7.658348311E+00     4.000000000E+00
       12     5.077805378E+01     7.658348311E+00     3.500000000E+00
       13     5.077805378E+01     7.658348311E+00     3.000000000E+00
       14     5.077805378E+01     7.658348311E+00     2.500000000E+00
       15     5.077805378E+01     7.658348311E+00     2.000000000E+00
       16     5.077805378E+01     7.658348311E+00     1.500000000E+00
       17     5.077805378E+01     7.658348311E+00     1.000000000E+00
       18     5.077805378E+01     7.658348311E+00     5.000000000E-01
       19     4.939965680E+01     3.734670198E+00     4.500000000E+00
       20     4.939965680E+01     3.734670198E+00     4.000000000E+00
! ... 30208 like lines cut
/wb,elem,start            !  set before creation of elements
/com,*********** Elements for Body 1 "v2" ***********
et,1,186
keyo,1,2,1          ! set full integration on SOLID186
eblock,19,solid,,5380
(19i9)
        1        1        1        1        0        0        0        0       20        0        1       19     1504     1198      982     3018     2853     2887     2911
     8448    13247    12504     8445    18439    18437    18517    18574     8450    14272    13248    12505
        1        1        1        1        0        0        0        0       20        0        2       19      982     1198     1504       20      983     1199     1505
     8445    12504    13247     8448     8452    12508    13250     8455     8444    12502    13246    14270
        1        1        1        1        0        0        0        0       20        0        3       20      983     1199     1505       21      984     1200     1506
     8452    12508    13250     8455     8458    12511    13252     8461     8451    12506    13249    14273
        1        1        1        1        0        0        0        0       20        0        4       21      984     1200     1506       22      985     1201     1507
     8458    12511    13252     8461     8464    12514    13254     8467     8457    12509    13251    14275
        1        1        1        1        0        0        0        0       20        0        5       22      985     1201     1507       23      986     1202     1508
     8464    12514    13254     8467     8470    12517    13256     8473     8463    12512    13253    14277
        1        1        1        1        0        0        0        0       20        0        6       23      986     1202     1508       24      987     1203     1509
     8470    12517    13256     8473     8476    12520    13258     8479     8469    12515    13255    14279
        1        1        1        1        0        0        0        0       20        0        7       24      987     1203     1509       25      988     1204     1510
     8476    12520    13258     8479     8482    12523    13260     8485     8475    12518    13257    14281
        1        1        1        1        0        0        0        0       20        0        8       25      988     1204     1510       26      989     1205     1511
     8482    12523    13260     8485     8488    12526    13262     8491     8481    12521    13259    14283
        1        1        1        1        0        0        0        0       20        0        9       26      989     1205     1511       27      990     1206     1512
     8488    12526    13262     8491     8493    12528    13263     8496     8487    12524    13261    14285
        1        1        1        1        0        0        0        0       20        0       10       27      990     1206     1512     3023     3130     3154     3188
     8493    12528    13263     8496    18798    19131    19186    18801     8498    12529    13264    14288
! ... 10741 like lines cut
!Material Id = {C115E55A-5ECA-46B2-9F37-DDABB9201B5C}
/wb,elem,end               !  done creating elements
/com,*********** Send User Defined Coordinate System(s) ***********
csys,0
toffst,273.15,  ! Temperature offset from absolute zero
/com,*********** Set Reference Temperature ***********
tref,22.
/wb,mat,start              !  starting to send materials
/com,*********** Send Materials ***********
Temperature = 'TEMP' ! Temperature
MP,DENS,1,7.85e-09,	! tonne mm^-3
MP,ALPX,1,1.2e-05,	! C^-1
MP,C,1,434000000,	! mm^2 s^-2 C^-1
MP,KXX,1,60.5,	! tonne mm s^-3 C^-1
MP,RSVX,1,0.00017,	! ohm mm
MP,EX,1,200000,	! tonne s^-2 mm^-1
MP,NUXY,1,0.3,
MP,MURX,1,10000,

/wb,mat,end                !  done sending materials
!************************* Model Summary ********************
!v2,	Structural Steel 2,	matid,	1
!************************* End Model Summary ********************
! get the diagonal of the bounding box. Needed later for other things
*get,_xmin,node,,mnloc,x
*get,_ymin,node,,mnloc,y
*get,_zmin,node,,mnloc,z
*get,_xmax,node,,mxloc,x
*get,_ymax,node,,mxloc,y
*get,_zmax,node,,mxloc,z
_ASMDIAG=(_xmax-_xmin)*(_xmax-_xmin)+(_ymax-_ymin)*(_ymax-_ymin)+(_zmax-_zmin)*(_zmax-_zmin)
_ASMDIAG=SQRT(_ASMDIAG)
/wb,contact,start          !  starting to send contact
/wb,contact,end            !  done creating contacts
/golist
/wb,load,start             !  starting to send loads
CMBLOCK,_CM32_FIXEDSU,NODE,       85
(8i10)
      3543      3544      3545      3546      3547      3548      3549      3550
      3551      3552      3553      3554      3555      3556      3557      3558
      3559      3560      3561      3562      3563      3564      3565      3566
      3567      3568      3569      3570      3571      3572      7925      7926
      7927     19982     19983     19984     19985     19986     19987     19988
     19989     19990     19991     19992     19993     19994     19995     19996
     19997     19998     19999     20000     20001     20002     20003     20004
     20005     20006     20007     20008     20009     20010     20011     20012
     20013     20014     20015     20016     20017     20018     20019     20020
     20021     20022     20024     20026     20028     20030     20032     20034
     20036     20038     20041     29695     29696
/com,*********** Create Displacement Components For Use In Future MSUP Analysis ******
CMBLOCK,_CM39_DISP,NODE,       85
(8i10)
      5833      5834      5835      5836      5837      5838      5839      5840
      5841      5842      5843      5844      5845      5846      5847      5848
      5849      5850      5851      5852      5853      5854      5855      5856
      5857      5858      5859      5860      5861      5862      8154      8155
      8156     25542     25543     25544     25545     25546     25547     25548
     25549     25550     25551     25552     25553     25554     25555     25556
     25557     25558     25559     25560     25561     25562     25563     25564
     25565     25566     25567     25568     25569     25570     25571     25572
     25573     25574     25575     25576     25577     25578     25579     25580
     25581     25582     25584     25586     25588     25590     25592     25594
     25596     25598     25601     30022     30023
/com,*********** Fixed Supports ***********
CMBLOCK,_FIXEDSU,NODE,       85
(8i10)
      3543      3544      3545      3546      3547      3548      3549      3550
      3551      3552      3553      3554      3555      3556      3557      3558
      3559      3560      3561      3562      3563      3564      3565      3566
      3567      3568      3569      3570      3571      3572      7925      7926
      7927     19982     19983     19984     19985     19986     19987     19988
     19989     19990     19991     19992     19993     19994     19995     19996
     19997     19998     19999     20000     20001     20002     20003     20004
     20005     20006     20007     20008     20009     20010     20011     20012
     20013     20014     20015     20016     20017     20018     20019     20020
     20021     20022     20024     20026     20028     20030     20032     20034
     20036     20038     20041     29695     29696
cmsel,s,_FIXEDSU
d,all,all
nsel,all
/com,******* Constant Zero Displacement X *******
CMBLOCK,_DISPZEROUX,NODE,       85
(8i10)
      5833      5834      5835      5836      5837      5838      5839      5840
      5841      5842      5843      5844      5845      5846      5847      5848
      5849      5850      5851      5852      5853      5854      5855      5856
      5857      5858      5859      5860      5861      5862      8154      8155
      8156     25542     25543     25544     25545     25546     25547     25548
     25549     25550     25551     25552     25553     25554     25555     25556
     25557     25558     25559     25560     25561     25562     25563     25564
     25565     25566     25567     25568     25569     25570     25571     25572
     25573     25574     25575     25576     25577     25578     25579     25580
     25581     25582     25584     25586     25588     25590     25592     25594
     25596     25598     25601     30022     30023
cmsel,s,_DISPZEROUX
d,all,ux,0
nsel,all
/com,******* Constant Zero Displacement Z *******
CMBLOCK,_DISPZEROUZ,NODE,       85
(8i10)
      5833      5834      5835      5836      5837      5838      5839      5840
      5841      5842      5843      5844      5845      5846      5847      5848
      5849      5850      5851      5852      5853      5854      5855      5856
      5857      5858      5859      5860      5861      5862      8154      8155
      8156     25542     25543     25544     25545     25546     25547     25548
     25549     25550     25551     25552     25553     25554     25555     25556
     25557     25558     25559     25560     25561     25562     25563     25564
     25565     25566     25567     25568     25569     25570     25571     25572
     25573     25574     25575     25576     25577     25578     25579     25580
     25581     25582     25584     25586     25588     25590     25592     25594
     25596     25598     25601     30022     30023
cmsel,s,_DISPZEROUZ
d,all,uz,0
nsel,all
/com,*********** Create Displacement Tables and Functions ******

*DIM,_loadvari39yp,TABLE,3,1,1,TIME,
! Time values
_loadvari39yp(1,0,1) = 0.
_loadvari39yp(2,0,1) = 1.
_loadvari39yp(3,0,1) = 2.
! Load values
_loadvari39yp(1,1,1) = 0.
_loadvari39yp(2,1,1) = -5.
_loadvari39yp(3,1,1) = -7.


*DIM,_loadvari39yn,TABLE,3,1,1,TIME,
! Time values
_loadvari39yn(1,0,1) = 0.
_loadvari39yn(2,0,1) = 1.
_loadvari39yn(3,0,1) = 2.
! Load values
_loadvari39yn(1,1,1) = 0.
_loadvari39yn(2,1,1) = 5.
_loadvari39yn(3,1,1) = 7.

/gst,on,on
fini
*get,_numnode,node,0,count
*get,_numelem,elem,0,count
*get, _MAXELEMNUM, elem, 0, NUM, MAX
*get, _MAXNODENUM, node, 0, NUM, MAX
*get, _MAXELEMTYPE, etyp, 0, NUM, MAX
*get, _MAXREALCONST, real, 0, NUM, MAX
/go
/wb,load,end               !  done creating loads
/com,--- Number of total nodes = %_numnode%
/com,--- Number of contact elements = 0
/com,--- Number of spring elements = 0
/com,--- Number of bearing elements = 0
/com,--- Number of solid elements = 5380
/com,--- Number of condensed parts = 0
/com,--- Number of total elements = %_numelem%
*get,_wallbsol,active,,time,wall
/com,****************************************************************************
/com,*************************    SOLUTION       ********************************
/com,****************************************************************************
/solu
antype,0                   ! static analysis
nlgeom,on                  ! Turn on Large Deformation Effects
_thickRatio=  1     ! Ratio of thick parts in the model
eqsl,pcg,1e-8,,,,,,1
cntr,print,1               ! print out contact info and also make no initial contact an error
nldiag,cont,iter           ! print out contact info each equilibrium iteration
rescontrol,define,last           ! Turn on restart files due to future eigen analysis intent
/com,****************************************************
/com,******************* SOLVE FOR LS 1 OF 3 ****************
/com,*** Set Displacements ***
CMBLOCK,_CM39UY_YP,NODE,       85
(8i10)
      5833      5834      5835      5836      5837      5838      5839      5840
      5841      5842      5843      5844      5845      5846      5847      5848
      5849      5850      5851      5852      5853      5854      5855      5856
      5857      5858      5859      5860      5861      5862      8154      8155
      8156     25542     25543     25544     25545     25546     25547     25548
     25549     25550     25551     25552     25553     25554     25555     25556
     25557     25558     25559     25560     25561     25562     25563     25564
     25565     25566     25567     25568     25569     25570     25571     25572
     25573     25574     25575     25576     25577     25578     25579     25580
     25581     25582     25584     25586     25588     25590     25592     25594
     25596     25598     25601     30022     30023
cmsel,s,_CM39UY_YP
d,all,uy,%_loadvari39yp%
nsel,all

/com,*** Component For All Non-Zero UY Displacements ***
cmsel,s,_CM39uy_yp
cm,_DISPNONZEROUY,NODE
nsel,all

/nopr
/gopr
autots,on                  ! Workbench Program Controlled automatic time stepping
nsub,1,10,1                ! due to presence of general nonlinear
time,1.
outres,erase
outres,all,none
outres,nsol,all,
outres,rsol,all
outres,eangl,all
outres,etmp,all
outres,veng,all
outres,strs,all,
outres,epel,all,
outres,eppl,all,
outres,cont,all,
! *********** WB SOLVE COMMAND ***********
! check interactive state
*get,ANSINTER_,active,,int
*if,ANSINTER_,ne,0,then
/eof
*endif
solve
/com *************** Write FE CONNECTORS ********* 
CEWRITE,file,ce,,INTE
/com,****************************************************
/com,*************** FINISHED SOLVE FOR LS 1 *************
/com,****************************************************
/com,******************* SOLVE FOR LS 2 OF 3 ****************
/com,*** Set Displacements ***
/nopr
/gopr
autots,on                  ! Workbench Program Controlled automatic time stepping
nsub,1,10,1                ! due to presence of general nonlinear
time,2.
outres,erase
outres,all,none
outres,nsol,all,
outres,rsol,all
outres,eangl,all
outres,etmp,all
outres,veng,all
outres,strs,all,
outres,epel,all,
outres,eppl,all,
outres,cont,all,
solve
/com,****************************************************
/com,*************** FINISHED SOLVE FOR LS 2 *************
/com,****************************************************
/com,******************* SOLVE FOR LS 3 OF 3 ****************
/com,*** Set Displacements ***
/nopr
/gopr
autots,on                   ! User turned on automatic time stepping
deltim,0.2,0.0384615,1,OFF
time,3.
outres,erase
outres,all,none
outres,nsol,all,
outres,rsol,all
outres,eangl,all
outres,etmp,all
outres,veng,all
outres,strs,all,
outres,epel,all,
outres,eppl,all,
outres,cont,all,
solve
/com,****************************************************
/com,*************** FINISHED SOLVE FOR LS 3 *************
*get,_wallasol,active,,time,wall
/nopr
*get,_numnode,node,0,count
*get,_numelem,elem,0,count
*get, _MAXELEMNUM, elem, 0, NUM, MAX
*get, _MAXNODENUM, node, 0, NUM, MAX,,,INTERNAL
*get, _MAXELEMTYPE, etyp, 0, NUM, MAX
*get, _MAXREALCONST, real, 0, NUM, MAX
/gopr
*get,_PCGITER,active,,solu,cgiter
/post1
xmlo,ENCODING,ISO-8859-1
xmlo,parm
/xml,parm,xml
fini
/gopr
*get,_walldone,active,,time,wall
_preptime=(_wallbsol-_wallstrt)*3600
_solvtime=(_wallasol-_wallbsol)*3600
_posttime=(_walldone-_wallasol)*3600
_totaltim=(_walldone-_wallstrt)*3600
*get,_dlbratio,active,0,solu,dlbr
*get,_combtime,active,0,solu,comb
/com,--- Number of total nodes = %_numnode%
/com,--- Number of total elements = %_numelem%
/com,--- Element load balance ratio = %_dlbratio%
/com,--- Time to combine distributed files = %_combtime%
/wb,file,end               ! done with WB generated input
