/batch
/config,noeldb,1     ! force off writing results to database
*get,_wallstrt,active,,time,wall
! ANSYS input file written by Workbench version 2019 R3
! File used for geometry attach: C:\Users\pedeb\Desktop\HTE\Compliant\Empty\FEM_files\user_files\V1.SLDPRT
/title,FEM--Static Structural (B5)
*DIM,_wb_ProjectScratch_dir,string,248
_wb_ProjectScratch_dir(1) = 'C:\Users\pedeb\Desktop\HTE\Compliant\Empty\_ProjectScratch\ScrDF78\'
*DIM,_wb_SolverFiles_dir,string,248
_wb_SolverFiles_dir(1) = 'C:\Users\pedeb\Desktop\HTE\Compliant\Empty\FEM_files\dp0\SYS\MECH\'
*DIM,_wb_userfiles_dir,string,248
_wb_userfiles_dir(1) = 'C:\Users\pedeb\Desktop\HTE\Compliant\Empty\FEM_files\user_files\'
/com,--- Data in consistent NMM units. See Solving Units in the help system for more information.
/units,MPA
/nopr
/wb,file,start              !  signify a WB generated input file
/prep7
! Turn off shape checking because checks already performed inside WB mesher.
! See help system for more information.
SHPP,OFF,,NOWARN
/nolist
etcon,set             ! allow ANSYS to choose best KEYOP's for 180x elements
/com,*********** Nodes for the whole assembly ***********
nblock,3,,15875
(1i9,3e20.9e3)
        1     5.856482668E+01     6.854032246E+01     2.400000000E+00
        2     5.856482668E+01     6.854032246E+01     1.800000000E+00
        3     5.856482668E+01     6.854032246E+01     1.200000000E+00
        4     5.856482668E+01     6.854032246E+01     6.000000000E-01
        5     6.250307135E+01     6.932029263E+01     2.400000000E+00
        6     6.250307135E+01     6.932029263E+01     1.800000000E+00
        7     6.250307135E+01     6.932029263E+01     1.200000000E+00
        8     6.250307135E+01     6.932029263E+01     6.000000000E-01
        9     5.687656881E+01     6.887508436E+01     2.400000000E+00
       10     5.687656881E+01     6.887508436E+01     1.800000000E+00
       11     5.687656881E+01     6.887508436E+01     1.200000000E+00
       12     5.687656881E+01     6.887508436E+01     6.000000000E-01
       13     5.505867720E+01     5.926592433E+00     2.400000000E+00
       14     5.505867720E+01     5.926592433E+00     1.800000000E+00
       15     5.505867720E+01     5.926592433E+00     1.200000000E+00
       16     5.505867720E+01     5.926592433E+00     6.000000000E-01
       17     5.848580748E+01     8.237844807E+00     2.400000000E+00
       18     5.848580748E+01     8.237844807E+00     1.800000000E+00
       19     5.848580748E+01     8.237844807E+00     1.200000000E+00
       20     5.848580748E+01     8.237844807E+00     6.000000000E-01
! ... 14413 like lines cut
/wb,elem,start            !  set before creation of elements
/com,*********** Elements for Body 1 "V1" ***********
et,1,186
keyo,1,2,1          ! set full integration on SOLID186
eblock,19,solid,,2455
(19i9)
        1        1        1        1        0        0        0        0       20        0        1     2589     2604     2620     3669     2590     2605     2619     3670
    11787    11828    11861    11788    11790    11831    11860    11791    11785    11825    11859    13996
        1        1        1        1        0        0        0        0       20        0        2     2588     2603     2618     3668     2589     2604     2620     3669
    11783    11824    11858    11784    11787    11828    11861    11788    11781    11821    11857    13995
        1        1        1        1        0        0        0        0       20        0        3     2587     2602     2617     3667     2588     2603     2618     3668
    11779    11820    11856    11780    11783    11824    11858    11784    11777    11817    11855    13994
        1        1        1        1        0        0        0        0       20        0        4     2586     2601     2616     3666     2587     2602     2617     3667
    11774    11815    11853    11775    11779    11820    11856    11780    11772    11812    11852    13992
        1        1        1        1        0        0        0        0       20        0        5     2586     3666     2616     2601     3887     3671     3881     3884
    11775    11853    11815    11774    13999    13998    14243    14248    11776    13993    11854    11816
        1        1        1        1        0        0        0        0       20        0        6      889     1065     2163     2184     1228     1184     2180     2185
     7528     8146    10852     7531     8513     8516    10876     8672     7530     8144    10851    10887
        1        1        1        1        0        0        0        0       20        0        7      889     2184     2163     1065      890     2183     2154     1066
     7531    10852     8146     7528     7536    10834     8150     7534     7527    10884    10833     8143
        1        1        1        1        0        0        0        0       20        0        8      890     2183     2154     1066      891     2182     2145     1067
     7536    10834     8150     7534     7541    10816     8154     7539     7533    10881    10815     8148
        1        1        1        1        0        0        0        0       20        0        9      891     2182     2145     1067      892     2181     2136     1068
     7541    10816     8154     7539     7546    10789     8158     7543     7538    10877    10788     8152
        1        1        1        1        0        0        0        0       20        0       10      892     2181     2136     1068     1673     3968     3969     1717
     7546    10789     8158     7543     9750    14331     9847     9747     7545    10880    10790     8156
! ... 4891 like lines cut
!Material Id = {D6F2E7C1-0E92-4DD5-B1F6-D6A196118B13}
/wb,elem,end               !  done creating elements
/com,*********** Send User Defined Coordinate System(s) ***********
csys,0
toffst,273.15,  ! Temperature offset from absolute zero
/com,*********** Set Reference Temperature ***********
tref,22.
/wb,mat,start              !  starting to send materials
/com,*********** Send Materials ***********
MP,DENS,1,1.29e-09,	! tonne mm^-3
MP,EX,1,2540,	! tonne s^-2 mm^-1
MP,NUXY,1,0.2,

/wb,mat,end                !  done sending materials
!************************* Model Summary ********************
!V1,	PLA,	matid,	1
!************************* End Model Summary ********************
! get the diagonal of the bounding box. Needed later for other things
*get,_xmin,node,,mnloc,x
*get,_ymin,node,,mnloc,y
*get,_zmin,node,,mnloc,z
*get,_xmax,node,,mxloc,x
*get,_ymax,node,,mxloc,y
*get,_zmax,node,,mxloc,z
_ASMDIAG=(_xmax-_xmin)*(_xmax-_xmin)+(_ymax-_ymin)*(_ymax-_ymin)+(_zmax-_zmin)*(_zmax-_zmin)
_ASMDIAG=SQRT(_ASMDIAG)
/wb,contact,start          !  starting to send contact
/wb,contact,end            !  done creating contacts
/golist
/wb,load,start             !  starting to send loads
CMBLOCK,_CM32_FIXEDSU,NODE,       84
(8i10)
      3246      3247      3248      3249      3250      3251      3252      3253
      3254      3255      3256      3257      3258      3259      3260      3261
      3262      3263      3264      3265      3266      3267      3268      3269
      3270      3271      3272      3273      3274      3275      3750      3751
      3752      3753      3754      3755     13212     13213     13214     13215
     13216     13217     13218     13219     13220     13221     13222     13224
     13225     13227     13229     13232     13233     13234     13235     13236
     13237     13238     13239     13240     13241     13242     13245     13246
     13249     13252     13257     13258     13259     13260     13261     13262
     13263     13264     13265     13266     13267     13269     13270     13272
     13274     14106     14108     14111
/com,*********** Create Displacement Components For Use In Future MSUP Analysis ******
CMBLOCK,_CM39_DISP,NODE,       84
(8i10)
      2581      2582      2583      2584      2585      2586      2587      2588
      2589      2590      2591      2592      2593      2594      2595      2596
      2597      2598      2599      2600      2601      2602      2603      2604
      2605      2606      2607      2608      2609      2610      3883      3884
      3885      3886      3887      3888     11762     11763     11764     11765
     11766     11767     11768     11769     11770     11771     11772     11776
     11777     11781     11785     11792     11793     11794     11795     11796
     11797     11798     11799     11800     11801     11802     11804     11805
     11807     11809     11812     11813     11816     11817     11818     11821
     11822     11825     11826     11829     11832     11834     11835     11837
     11839     14246     14249     14251
/com,*********** Create Displacement Components For Use In Future MSUP Analysis ******
CMBLOCK,_CM39_DISP,NODE,       84
(8i10)
      2581      2582      2583      2584      2585      2586      2587      2588
      2589      2590      2591      2592      2593      2594      2595      2596
      2597      2598      2599      2600      2601      2602      2603      2604
      2605      2606      2607      2608      2609      2610      3883      3884
      3885      3886      3887      3888     11762     11763     11764     11765
     11766     11767     11768     11769     11770     11771     11772     11776
     11777     11781     11785     11792     11793     11794     11795     11796
     11797     11798     11799     11800     11801     11802     11804     11805
     11807     11809     11812     11813     11816     11817     11818     11821
     11822     11825     11826     11829     11832     11834     11835     11837
     11839     14246     14249     14251
/com,*********** Create Displacement Components For Use In Future MSUP Analysis ******
CMBLOCK,_CM39_DISP,NODE,       84
(8i10)
      2581      2582      2583      2584      2585      2586      2587      2588
      2589      2590      2591      2592      2593      2594      2595      2596
      2597      2598      2599      2600      2601      2602      2603      2604
      2605      2606      2607      2608      2609      2610      3883      3884
      3885      3886      3887      3888     11762     11763     11764     11765
     11766     11767     11768     11769     11770     11771     11772     11776
     11777     11781     11785     11792     11793     11794     11795     11796
     11797     11798     11799     11800     11801     11802     11804     11805
     11807     11809     11812     11813     11816     11817     11818     11821
     11822     11825     11826     11829     11832     11834     11835     11837
     11839     14246     14249     14251
/com,*********** Fixed Supports ***********
CMBLOCK,_FIXEDSU,NODE,       84
(8i10)
      3246      3247      3248      3249      3250      3251      3252      3253
      3254      3255      3256      3257      3258      3259      3260      3261
      3262      3263      3264      3265      3266      3267      3268      3269
      3270      3271      3272      3273      3274      3275      3750      3751
      3752      3753      3754      3755     13212     13213     13214     13215
     13216     13217     13218     13219     13220     13221     13222     13224
     13225     13227     13229     13232     13233     13234     13235     13236
     13237     13238     13239     13240     13241     13242     13245     13246
     13249     13252     13257     13258     13259     13260     13261     13262
     13263     13264     13265     13266     13267     13269     13270     13272
     13274     14106     14108     14111
cmsel,s,_FIXEDSU
d,all,all
nsel,all
/com,******* Constant Zero Displacement X *******
CMBLOCK,_DISPZEROUX,NODE,       84
(8i10)
      2581      2582      2583      2584      2585      2586      2587      2588
      2589      2590      2591      2592      2593      2594      2595      2596
      2597      2598      2599      2600      2601      2602      2603      2604
      2605      2606      2607      2608      2609      2610      3883      3884
      3885      3886      3887      3888     11762     11763     11764     11765
     11766     11767     11768     11769     11770     11771     11772     11776
     11777     11781     11785     11792     11793     11794     11795     11796
     11797     11798     11799     11800     11801     11802     11804     11805
     11807     11809     11812     11813     11816     11817     11818     11821
     11822     11825     11826     11829     11832     11834     11835     11837
     11839     14246     14249     14251
cmsel,s,_DISPZEROUX
d,all,ux,0
nsel,all
/com,******* Constant Zero Displacement Z *******
CMBLOCK,_DISPZEROUZ,NODE,       84
(8i10)
      2581      2582      2583      2584      2585      2586      2587      2588
      2589      2590      2591      2592      2593      2594      2595      2596
      2597      2598      2599      2600      2601      2602      2603      2604
      2605      2606      2607      2608      2609      2610      3883      3884
      3885      3886      3887      3888     11762     11763     11764     11765
     11766     11767     11768     11769     11770     11771     11772     11776
     11777     11781     11785     11792     11793     11794     11795     11796
     11797     11798     11799     11800     11801     11802     11804     11805
     11807     11809     11812     11813     11816     11817     11818     11821
     11822     11825     11826     11829     11832     11834     11835     11837
     11839     14246     14249     14251
cmsel,s,_DISPZEROUZ
d,all,uz,0
nsel,all
/com,*********** Create Displacement Tables and Functions ******

*DIM,_loadvari39yp,TABLE,3,1,1,TIME,
! Time values
_loadvari39yp(1,0,1) = 0.
_loadvari39yp(2,0,1) = 1.
_loadvari39yp(3,0,1) = 2.
! Load values
_loadvari39yp(1,1,1) = 0.
_loadvari39yp(2,1,1) = -5.
_loadvari39yp(3,1,1) = -8.


*DIM,_loadvari39yn,TABLE,3,1,1,TIME,
! Time values
_loadvari39yn(1,0,1) = 0.
_loadvari39yn(2,0,1) = 1.
_loadvari39yn(3,0,1) = 2.
! Load values
_loadvari39yn(1,1,1) = 0.
_loadvari39yn(2,1,1) = 5.
_loadvari39yn(3,1,1) = 8.

/gst,on,on
fini
*get,_numnode,node,0,count
*get,_numelem,elem,0,count
*get, _MAXELEMNUM, elem, 0, NUM, MAX
*get, _MAXNODENUM, node, 0, NUM, MAX
*get, _MAXELEMTYPE, etyp, 0, NUM, MAX
*get, _MAXREALCONST, real, 0, NUM, MAX
/go
/wb,load,end               !  done creating loads
/com,--- Number of total nodes = %_numnode%
/com,--- Number of contact elements = 0
/com,--- Number of spring elements = 0
/com,--- Number of bearing elements = 0
/com,--- Number of solid elements = 2455
/com,--- Number of condensed parts = 0
/com,--- Number of total elements = %_numelem%
*get,_wallbsol,active,,time,wall
/com,****************************************************************************
/com,*************************    SOLUTION       ********************************
/com,****************************************************************************
/solu
antype,0                   ! static analysis
nlgeom,on                  ! Turn on Large Deformation Effects
_thickRatio=  1     ! Ratio of thick parts in the model
eqsl,pcg,1e-8,,,,,,1
cntr,print,1               ! print out contact info and also make no initial contact an error
nldiag,cont,iter           ! print out contact info each equilibrium iteration
rescontrol,define,last           ! Turn on restart files due to future eigen analysis intent
/com,****************************************************
/com,******************* SOLVE FOR LS 1 OF 3 ****************
/com,*** Set Displacements ***
CMBLOCK,_CM39UY_YP,NODE,       84
(8i10)
      2581      2582      2583      2584      2585      2586      2587      2588
      2589      2590      2591      2592      2593      2594      2595      2596
      2597      2598      2599      2600      2601      2602      2603      2604
      2605      2606      2607      2608      2609      2610      3883      3884
      3885      3886      3887      3888     11762     11763     11764     11765
     11766     11767     11768     11769     11770     11771     11772     11776
     11777     11781     11785     11792     11793     11794     11795     11796
     11797     11798     11799     11800     11801     11802     11804     11805
     11807     11809     11812     11813     11816     11817     11818     11821
     11822     11825     11826     11829     11832     11834     11835     11837
     11839     14246     14249     14251
cmsel,s,_CM39UY_YP
d,all,uy,%_loadvari39yp%
nsel,all

/com,*** Component For All Non-Zero UY Displacements ***
cmsel,s,_CM39uy_yp
cm,_DISPNONZEROUY,NODE
nsel,all

/nopr
/gopr
autots,on                  ! Workbench Program Controlled automatic time stepping
nsub,1,10,1                ! due to presence of general nonlinear
time,1.
outres,erase
outres,all,none
outres,nsol,all,
outres,rsol,all
outres,eangl,all
outres,etmp,all
outres,veng,all
outres,strs,all,
outres,epel,all,
outres,eppl,all,
outres,cont,all,
! *********** WB SOLVE COMMAND ***********
! check interactive state
*get,ANSINTER_,active,,int
*if,ANSINTER_,ne,0,then
/eof
*endif
solve
/com *************** Write FE CONNECTORS ********* 
CEWRITE,file,ce,,INTE
/com,****************************************************
/com,*************** FINISHED SOLVE FOR LS 1 *************
/com,****************************************************
/com,******************* SOLVE FOR LS 2 OF 3 ****************
/com,*** Set Displacements ***
/nopr
/gopr
autots,on                  ! Workbench Program Controlled automatic time stepping
nsub,1,10,1                ! due to presence of general nonlinear
time,2.
outres,erase
outres,all,none
outres,nsol,all,
outres,rsol,all
outres,eangl,all
outres,etmp,all
outres,veng,all
outres,strs,all,
outres,epel,all,
outres,eppl,all,
outres,cont,all,
solve
/com,****************************************************
/com,*************** FINISHED SOLVE FOR LS 2 *************
/com,****************************************************
/com,******************* SOLVE FOR LS 3 OF 3 ****************
/com,*** Set Displacements ***
/nopr
/gopr
autots,on                   ! User turned on automatic time stepping
deltim,0.2,0.0384615,1,OFF
time,3.
outres,erase
outres,all,none
outres,nsol,all,
outres,rsol,all
outres,eangl,all
outres,etmp,all
outres,veng,all
outres,strs,all,
outres,epel,all,
outres,eppl,all,
outres,cont,all,
solve
/com,****************************************************
/com,*************** FINISHED SOLVE FOR LS 3 *************
*get,_wallasol,active,,time,wall
/nopr
*get,_numnode,node,0,count
*get,_numelem,elem,0,count
*get, _MAXELEMNUM, elem, 0, NUM, MAX
*get, _MAXNODENUM, node, 0, NUM, MAX,,,INTERNAL
*get, _MAXELEMTYPE, etyp, 0, NUM, MAX
*get, _MAXREALCONST, real, 0, NUM, MAX
/gopr
*get,_PCGITER,active,,solu,cgiter
/post1
xmlo,ENCODING,ISO-8859-1
xmlo,parm
/xml,parm,xml
fini
/gopr
*get,_walldone,active,,time,wall
_preptime=(_wallbsol-_wallstrt)*3600
_solvtime=(_wallasol-_wallbsol)*3600
_posttime=(_walldone-_wallasol)*3600
_totaltim=(_walldone-_wallstrt)*3600
*get,_dlbratio,active,0,solu,dlbr
*get,_combtime,active,0,solu,comb
/com,--- Number of total nodes = %_numnode%
/com,--- Number of total elements = %_numelem%
/com,--- Element load balance ratio = %_dlbratio%
/com,--- Time to combine distributed files = %_combtime%
/wb,file,end               ! done with WB generated input
