/batch
/config,noeldb,1     ! force off writing results to database
*get,_wallstrt,active,,time,wall
! ANSYS input file written by Workbench version 2019 R3
! File used for geometry attach: C:\Users\pedeb\Desktop\HTE\Compliant\Compliant_Code\FEM_files\user_files\v2.SLDPRT
/title,FEM--Static Structural (B5)
*DIM,_wb_ProjectScratch_dir,string,248
_wb_ProjectScratch_dir(1) = 'C:\Users\pedeb\Desktop\HTE\Compliant\Compliant_Code\_ProjectScratch\Scr2520\'
*DIM,_wb_SolverFiles_dir,string,248
_wb_SolverFiles_dir(1) = 'C:\Users\pedeb\Desktop\HTE\Compliant\Compliant_Code\FEM_files\dp0\SYS\MECH\'
*DIM,_wb_userfiles_dir,string,248
_wb_userfiles_dir(1) = 'C:\Users\pedeb\Desktop\HTE\Compliant\Compliant_Code\FEM_files\user_files\'
/com,--- Data in consistent NMM units. See Solving Units in the help system for more information.
/units,MPA
/nopr
/wb,file,start              !  signify a WB generated input file
/prep7
! Turn off shape checking because checks already performed inside WB mesher.
! See help system for more information.
SHPP,OFF,,NOWARN
/nolist
etcon,set             ! allow ANSYS to choose best KEYOP's for 180x elements
/com,*********** Nodes for the whole assembly ***********
nblock,3,,20430
(1i9,3e20.9e3)
        1     3.271385933E+01    -3.377787904E+00     5.555555556E-01
        2     3.271385933E+01    -3.377787904E+00     1.111111111E+00
        3     3.271385933E+01    -3.377787904E+00     1.666666667E+00
        4     3.271385933E+01    -3.377787904E+00     2.222222222E+00
        5     3.271385933E+01    -3.377787904E+00     2.777777778E+00
        6     3.271385933E+01    -3.377787904E+00     3.333333333E+00
        7     3.271385933E+01    -3.377787904E+00     3.888888889E+00
        8     3.271385933E+01    -3.377787904E+00     4.444444444E+00
        9     3.313752495E+01    -3.221399110E+00     5.555555556E-01
       10     3.313752495E+01    -3.221399110E+00     1.111111111E+00
       11     3.313752495E+01    -3.221399110E+00     1.666666667E+00
       12     3.313752495E+01    -3.221399110E+00     2.222222222E+00
       13     3.313752495E+01    -3.221399110E+00     2.777777778E+00
       14     3.313752495E+01    -3.221399110E+00     3.333333333E+00
       15     3.313752495E+01    -3.221399110E+00     3.888888889E+00
       16     3.313752495E+01    -3.221399110E+00     4.444444444E+00
       17     3.419547575E+01     6.260436523E+01     5.555555556E-01
       18     3.419547575E+01     6.260436523E+01     1.111111111E+00
       19     3.419547575E+01     6.260436523E+01     1.666666667E+00
       20     3.419547575E+01     6.260436523E+01     2.222222222E+00
! ... 18554 like lines cut
/wb,elem,start            !  set before creation of elements
/com,*********** Elements for Body 1 "v2" ***********
et,1,186
keyo,1,2,1          ! set full integration on SOLID186
eblock,19,solid,,3231
(19i9)
        1        1        1        1        0        0        0        0       20        0        1        1     2422     2432        9     1647     2400     2433     1646
     5175    12702     5207     5172    10948    12655    10947    10946     5174    12654    12719     5206
        1        1        1        1        0        0        0        0       20        0        2        1        9     2432     2422        2       10     2431     2419
     5172     5207    12702     5175     5177     5210    12697     5179     5171     5204    12717    12696
        1        1        1        1        0        0        0        0       20        0        3        2       10     2431     2419        3       11     2430     2416
     5177     5210    12697     5179     5181     5213    12691     5183     5176     5208    12715    12690
        1        1        1        1        0        0        0        0       20        0        4        3       11     2430     2416        4       12     2429     2413
     5181     5213    12691     5183     5185     5216    12685     5187     5180     5211    12713    12684
        1        1        1        1        0        0        0        0       20        0        5        4       12     2429     2413        5       13     2428     2410
     5185     5216    12685     5187     5189     5219    12679     5191     5184     5214    12711    12678
        1        1        1        1        0        0        0        0       20        0        6        5       13     2428     2410        6       14     2427     2407
     5189     5219    12679     5191     5193     5222    12673     5195     5188     5217    12709    12672
        1        1        1        1        0        0        0        0       20        0        7        6       14     2427     2407        7       15     2426     2404
     5193     5222    12673     5195     5197     5225    12667     5199     5192     5220    12707    12666
        1        1        1        1        0        0        0        0       20        0        8        7       15     2426     2404        8       16     2425     2401
     5197     5225    12667     5199     5200     5228    12658     5203     5196     5223    12704    12657
        1        1        1        1        0        0        0        0       20        0        9        8       16     2425     2401     1648     1649     4903     4902
     5200     5228    12658     5203    10949    10953    18235    10951     5202     5227    12706    12659
        1        1        1        1        0        0        0        0       20        0       10        1        9      353      345     1647     1646     1603     1604
     5172     5205     6631     5173    10946    10879    10877    10882     5174     5206     6665     6634
! ... 6443 like lines cut
!Material Id = {C115E55A-5ECA-46B2-9F37-DDABB9201B5C}
/wb,elem,end               !  done creating elements
/com,*********** Send User Defined Coordinate System(s) ***********
csys,0
toffst,273.15,  ! Temperature offset from absolute zero
/com,*********** Set Reference Temperature ***********
tref,22.
/wb,mat,start              !  starting to send materials
/com,*********** Send Materials ***********
Temperature = 'TEMP' ! Temperature
MP,DENS,1,7.85e-09,	! tonne mm^-3
MP,ALPX,1,1.2e-05,	! C^-1
MP,C,1,434000000,	! mm^2 s^-2 C^-1
MP,KXX,1,60.5,	! tonne mm s^-3 C^-1
MP,RSVX,1,0.00017,	! ohm mm
MP,EX,1,200000,	! tonne s^-2 mm^-1
MP,NUXY,1,0.3,
MP,MURX,1,10000,

/wb,mat,end                !  done sending materials
!************************* Model Summary ********************
!v2,	Structural Steel 2,	matid,	1
!************************* End Model Summary ********************
! get the diagonal of the bounding box. Needed later for other things
*get,_xmin,node,,mnloc,x
*get,_ymin,node,,mnloc,y
*get,_zmin,node,,mnloc,z
*get,_xmax,node,,mxloc,x
*get,_ymax,node,,mxloc,y
*get,_zmax,node,,mxloc,z
_ASMDIAG=(_xmax-_xmin)*(_xmax-_xmin)+(_ymax-_ymin)*(_ymax-_ymin)+(_zmax-_zmin)*(_zmax-_zmin)
_ASMDIAG=SQRT(_ASMDIAG)
/wb,contact,start          !  starting to send contact
/wb,contact,end            !  done creating contacts
/golist
/wb,load,start             !  starting to send loads
CMBLOCK,_CM32_FIXEDSU,NODE,      164
(8i10)
      1957      1958      1959      1960      1961      1962      1963      1964
      1965      1966      1967      1968      1969      1970      1971      1972
      1973      1974      1975      1976      1977      1978      1979      1980
      1981      1982      1983      1984      1985      1986      1987      1988
      1989      1990      1991      1992      1993      1994      1995      1996
      1997      1998      1999      2000      2001      2002      2003      2004
      2005      2006      2007      2008      2009      2010      4851      4852
      4853      4854      4855      4856     11669     11670     11671     11672
     11673     11674     11675     11676     11677     11678     11679     11680
     11681     11682     11683     11684     11685     11686     11687     11688
     11689     11690     11691     11692     11693     11694     11695     11696
     11697     11698     11699     11700     11701     11702     11703     11704
     11705     11706     11707     11708     11709     11710     11711     11712
     11713     11714     11715     11716     11717     11718     11719     11720
     11721     11722     11723     11724     11725     11726     11727     11728
     11729     11730     11731     11732     11733     11734     11735     11736
     11737     11738     11739     11740     11741     11742     11743     11744
     11745     11746     11747     11748     11749     11750     11751     11752
     11753     11754     11755     11756     11757     11758     11759     11761
     11762     11764     11766     11768     11770     11772     11774     18173
     18174     18175     18176     18177
/com,*********** Create Displacement Components For Use In Future MSUP Analysis ******
CMBLOCK,_CM39_DISP,NODE,      106
(8i10)
      3433      3434      3435      3436      3437      3438      3439      3440
      3441      3442      3443      3444      3445      3446      3447      3448
      3449      3450      3451      3452      3453      3454      3455      3456
      3457      3458      3459      3460      3461      3462      3463      3464
      3465      3466      3467      3468      5015      5016      5017      5018
     15341     15342     15343     15344     15345     15346     15347     15348
     15349     15350     15351     15352     15353     15354     15355     15356
     15357     15358     15359     15360     15362     15363     15365     15366
     15367     15369     15370     15372     15373     15374     15375     15377
     15379     15380     15381     15383     15385     15386     15387     15389
     15391     15392     15393     15395     15397     15398     15399     15401
     15403     15404     15405     15407     15409     15410     15413     15415
     15416     15418     15420     15422     15424     15426     15428     18417
     18418     18420
/com,*********** Fixed Supports ***********
CMBLOCK,_FIXEDSU,NODE,      164
(8i10)
      1957      1958      1959      1960      1961      1962      1963      1964
      1965      1966      1967      1968      1969      1970      1971      1972
      1973      1974      1975      1976      1977      1978      1979      1980
      1981      1982      1983      1984      1985      1986      1987      1988
      1989      1990      1991      1992      1993      1994      1995      1996
      1997      1998      1999      2000      2001      2002      2003      2004
      2005      2006      2007      2008      2009      2010      4851      4852
      4853      4854      4855      4856     11669     11670     11671     11672
     11673     11674     11675     11676     11677     11678     11679     11680
     11681     11682     11683     11684     11685     11686     11687     11688
     11689     11690     11691     11692     11693     11694     11695     11696
     11697     11698     11699     11700     11701     11702     11703     11704
     11705     11706     11707     11708     11709     11710     11711     11712
     11713     11714     11715     11716     11717     11718     11719     11720
     11721     11722     11723     11724     11725     11726     11727     11728
     11729     11730     11731     11732     11733     11734     11735     11736
     11737     11738     11739     11740     11741     11742     11743     11744
     11745     11746     11747     11748     11749     11750     11751     11752
     11753     11754     11755     11756     11757     11758     11759     11761
     11762     11764     11766     11768     11770     11772     11774     18173
     18174     18175     18176     18177
cmsel,s,_FIXEDSU
d,all,all
nsel,all
/com,******* Constant Zero Displacement X *******
CMBLOCK,_DISPZEROUX,NODE,      106
(8i10)
      3433      3434      3435      3436      3437      3438      3439      3440
      3441      3442      3443      3444      3445      3446      3447      3448
      3449      3450      3451      3452      3453      3454      3455      3456
      3457      3458      3459      3460      3461      3462      3463      3464
      3465      3466      3467      3468      5015      5016      5017      5018
     15341     15342     15343     15344     15345     15346     15347     15348
     15349     15350     15351     15352     15353     15354     15355     15356
     15357     15358     15359     15360     15362     15363     15365     15366
     15367     15369     15370     15372     15373     15374     15375     15377
     15379     15380     15381     15383     15385     15386     15387     15389
     15391     15392     15393     15395     15397     15398     15399     15401
     15403     15404     15405     15407     15409     15410     15413     15415
     15416     15418     15420     15422     15424     15426     15428     18417
     18418     18420
cmsel,s,_DISPZEROUX
d,all,ux,0
nsel,all
/com,******* Constant Zero Displacement Z *******
CMBLOCK,_DISPZEROUZ,NODE,      106
(8i10)
      3433      3434      3435      3436      3437      3438      3439      3440
      3441      3442      3443      3444      3445      3446      3447      3448
      3449      3450      3451      3452      3453      3454      3455      3456
      3457      3458      3459      3460      3461      3462      3463      3464
      3465      3466      3467      3468      5015      5016      5017      5018
     15341     15342     15343     15344     15345     15346     15347     15348
     15349     15350     15351     15352     15353     15354     15355     15356
     15357     15358     15359     15360     15362     15363     15365     15366
     15367     15369     15370     15372     15373     15374     15375     15377
     15379     15380     15381     15383     15385     15386     15387     15389
     15391     15392     15393     15395     15397     15398     15399     15401
     15403     15404     15405     15407     15409     15410     15413     15415
     15416     15418     15420     15422     15424     15426     15428     18417
     18418     18420
cmsel,s,_DISPZEROUZ
d,all,uz,0
nsel,all
/com,*********** Create Displacement Tables and Functions ******

*DIM,_loadvari39yp,TABLE,4,1,1,TIME,
! Time values
_loadvari39yp(1,0,1) = 0.
_loadvari39yp(2,0,1) = 1.
_loadvari39yp(3,0,1) = 2.
_loadvari39yp(4,0,1) = 3.
! Load values
_loadvari39yp(1,1,1) = 0.
_loadvari39yp(2,1,1) = -1.
_loadvari39yp(3,1,1) = -2.
_loadvari39yp(4,1,1) = -3.


*DIM,_loadvari39yn,TABLE,4,1,1,TIME,
! Time values
_loadvari39yn(1,0,1) = 0.
_loadvari39yn(2,0,1) = 1.
_loadvari39yn(3,0,1) = 2.
_loadvari39yn(4,0,1) = 3.
! Load values
_loadvari39yn(1,1,1) = 0.
_loadvari39yn(2,1,1) = 1.
_loadvari39yn(3,1,1) = 2.
_loadvari39yn(4,1,1) = 3.

/gst,on,on
fini
*get,_numnode,node,0,count
*get,_numelem,elem,0,count
*get, _MAXELEMNUM, elem, 0, NUM, MAX
*get, _MAXNODENUM, node, 0, NUM, MAX
*get, _MAXELEMTYPE, etyp, 0, NUM, MAX
*get, _MAXREALCONST, real, 0, NUM, MAX
/go
/wb,load,end               !  done creating loads
/com,--- Number of total nodes = %_numnode%
/com,--- Number of contact elements = 0
/com,--- Number of spring elements = 0
/com,--- Number of bearing elements = 0
/com,--- Number of solid elements = 3231
/com,--- Number of condensed parts = 0
/com,--- Number of total elements = %_numelem%
*get,_wallbsol,active,,time,wall
/com,****************************************************************************
/com,*************************    SOLUTION       ********************************
/com,****************************************************************************
/solu
antype,0                   ! static analysis
nlgeom,on                  ! Turn on Large Deformation Effects
_thickRatio=  1     ! Ratio of thick parts in the model
eqsl,pcg,1e-8,,,,,,1
cntr,print,1               ! print out contact info and also make no initial contact an error
nldiag,cont,iter           ! print out contact info each equilibrium iteration
rescontrol,define,last           ! Turn on restart files due to future eigen analysis intent
/com,****************************************************
/com,******************* SOLVE FOR LS 1 OF 3 ****************
/com,*** Set Displacements ***
CMBLOCK,_CM39UY_YP,NODE,      106
(8i10)
      3433      3434      3435      3436      3437      3438      3439      3440
      3441      3442      3443      3444      3445      3446      3447      3448
      3449      3450      3451      3452      3453      3454      3455      3456
      3457      3458      3459      3460      3461      3462      3463      3464
      3465      3466      3467      3468      5015      5016      5017      5018
     15341     15342     15343     15344     15345     15346     15347     15348
     15349     15350     15351     15352     15353     15354     15355     15356
     15357     15358     15359     15360     15362     15363     15365     15366
     15367     15369     15370     15372     15373     15374     15375     15377
     15379     15380     15381     15383     15385     15386     15387     15389
     15391     15392     15393     15395     15397     15398     15399     15401
     15403     15404     15405     15407     15409     15410     15413     15415
     15416     15418     15420     15422     15424     15426     15428     18417
     18418     18420
cmsel,s,_CM39UY_YP
d,all,uy,%_loadvari39yp%
nsel,all

/com,*** Component For All Non-Zero UY Displacements ***
cmsel,s,_CM39uy_yp
cm,_DISPNONZEROUY,NODE
nsel,all

/nopr
/gopr
autots,on                  ! Workbench Program Controlled automatic time stepping
nsub,1,10,1                ! due to presence of general nonlinear
time,1.
outres,erase
outres,all,none
outres,nsol,all,
outres,rsol,all
outres,eangl,all
outres,etmp,all
outres,veng,all
outres,strs,all,
outres,epel,all,
outres,eppl,all,
outres,cont,all,
! *********** WB SOLVE COMMAND ***********
! check interactive state
*get,ANSINTER_,active,,int
*if,ANSINTER_,ne,0,then
/eof
*endif
solve
/com *************** Write FE CONNECTORS ********* 
CEWRITE,file,ce,,INTE
/com,****************************************************
/com,*************** FINISHED SOLVE FOR LS 1 *************
/com,****************************************************
/com,******************* SOLVE FOR LS 2 OF 3 ****************
/com,*** Set Displacements ***
/nopr
/gopr
autots,on                  ! Workbench Program Controlled automatic time stepping
nsub,1,10,1                ! due to presence of general nonlinear
time,2.
outres,erase
outres,all,none
outres,nsol,all,
outres,rsol,all
outres,eangl,all
outres,etmp,all
outres,veng,all
outres,strs,all,
outres,epel,all,
outres,eppl,all,
outres,cont,all,
solve
/com,****************************************************
/com,*************** FINISHED SOLVE FOR LS 2 *************
/com,****************************************************
/com,******************* SOLVE FOR LS 3 OF 3 ****************
/com,*** Set Displacements ***
/nopr
/gopr
autots,on                   ! User turned on automatic time stepping
deltim,0.2,0.0384615,1,OFF
time,3.
outres,erase
outres,all,none
outres,nsol,all,
outres,rsol,all
outres,eangl,all
outres,etmp,all
outres,veng,all
outres,strs,all,
outres,epel,all,
outres,eppl,all,
outres,cont,all,
solve
/com,****************************************************
/com,*************** FINISHED SOLVE FOR LS 3 *************
*get,_wallasol,active,,time,wall
/nopr
*get,_numnode,node,0,count
*get,_numelem,elem,0,count
*get, _MAXELEMNUM, elem, 0, NUM, MAX
*get, _MAXNODENUM, node, 0, NUM, MAX,,,INTERNAL
*get, _MAXELEMTYPE, etyp, 0, NUM, MAX
*get, _MAXREALCONST, real, 0, NUM, MAX
/gopr
*get,_PCGITER,active,,solu,cgiter
/post1
xmlo,ENCODING,ISO-8859-1
xmlo,parm
/xml,parm,xml
fini
/gopr
*get,_walldone,active,,time,wall
_preptime=(_wallbsol-_wallstrt)*3600
_solvtime=(_wallasol-_wallbsol)*3600
_posttime=(_walldone-_wallasol)*3600
_totaltim=(_walldone-_wallstrt)*3600
*get,_dlbratio,active,0,solu,dlbr
*get,_combtime,active,0,solu,comb
/com,--- Number of total nodes = %_numnode%
/com,--- Number of total elements = %_numelem%
/com,--- Element load balance ratio = %_dlbratio%
/com,--- Time to combine distributed files = %_combtime%
/wb,file,end               ! done with WB generated input
