
 ANSYS Academic Teaching Advanced                  


 *------------------------------------------------------------------*
 |                                                                  |
 |   W E L C O M E   T O   T H E   A N S Y S (R)  P R O G R A M     |
 |                                                                  |
 *------------------------------------------------------------------*




 ***************************************************************
 *            ANSYS 2019 R3          LEGAL NOTICES             *
 ***************************************************************
 *                                                             *
 * Copyright 1971-2019 ANSYS, Inc.  All rights reserved.       *
 * Unauthorized use, distribution or duplication is            *
 * prohibited.                                                 *
 *                                                             *
 * Ansys is a registered trademark of ANSYS, Inc. or its       *
 * subsidiaries in the United States or other countries.       *
 * See the ANSYS, Inc. online documentation or the ANSYS, Inc. *
 * documentation CD or online help for the complete Legal      *
 * Notice.                                                     *
 *                                                             *
 ***************************************************************
 *                                                             *
 * THIS ANSYS SOFTWARE PRODUCT AND PROGRAM DOCUMENTATION       *
 * INCLUDE TRADE SECRETS AND CONFIDENTIAL AND PROPRIETARY      *
 * PRODUCTS OF ANSYS, INC., ITS SUBSIDIARIES, OR LICENSORS.    *
 * The software products and documentation are furnished by    *
 * ANSYS, Inc. or its subsidiaries under a software license    *
 * agreement that contains provisions concerning               *
 * non-disclosure, copying, length and nature of use,          *
 * compliance with exporting laws, warranties, disclaimers,    *
 * limitations of liability, and remedies, and other           *
 * provisions.  The software products and documentation may be *
 * used, disclosed, transferred, or copied only in accordance  *
 * with the terms and conditions of that software license      *
 * agreement.                                                  *
 *                                                             *
 * ANSYS, Inc. is a UL registered                              *
 * ISO 9001:2015 company.                                      *
 *                                                             *
 ***************************************************************
 *                                                             *
 * This product is subject to U.S. laws governing export and   *
 * re-export.                                                  *
 *                                                             *
 * For U.S. Government users, except as specifically granted   *
 * by the ANSYS, Inc. software license agreement, the use,     *
 * duplication, or disclosure by the United States Government  *
 * is subject to restrictions stated in the ANSYS, Inc.        *
 * software license agreement and FAR 12.212 (for non-DOD      *
 * licenses).                                                  *
 *                                                             *
 ***************************************************************

 2019 R3 
     
 Point Releases and Patches installed:   
     
 ANSYS, Inc. Products 2019 R3
 SpaceClaim 2019 R3  
 AIM 2019 R3 
 Live (includes SpaceClaim) 2019 R3  
 Autodyn 2019 R3 
 LS-DYNA 2019 R3 
 CFX (includes CFD-Post) 2019 R3 
 Chemkin 2019 R3 
 EnSight 2019 R3 
 FENSAP-ICE 2019 R3  
 Fluent (includes CFD-Post) 2019 R3  
 Forte 2019 R3   
 Polyflow (includes CFD-Post) 2019 R3
 TurboGrid 2019 R3   
 ICEM CFD 2019 R3
 Aqwa 2019 R3
 Mechanical Products 2019 R3 
 Additive 2019 R3
 Icepak (includes CFD-Post) 2019 R3  
 ACIS Geometry Interface 2019 R3 
 AutoCAD Geometry Interface 2019 R3  
 Catia, Version 4 Geometry Interface 2019 R3 
 Catia, Version 6 Geometry Interface 2019 R3 
 Creo Elements/Direct Modeling Geometry Interface 2019 R3
 Creo Parametric Geometry Interface 2019 R3  
 Inventor Geometry Interface 2019 R3 
 JTOpen Geometry Interface 2019 R3   
 NX Geometry Interface 2019 R3   
 Parasolid Geometry Interface  2019 R3   
 Solid Edge Geometry Interface 2019 R3   
 SOLIDWORKS Geometry Interface 2019 R3   
 ANSYS, Inc. License Manager 2019 R3 


          *****  ANSYS COMMAND LINE ARGUMENTS  *****
  BATCH MODE REQUESTED (-b)    = NOLIST
  INPUT FILE COPY MODE (-c)    = COPY
  DISTRIBUTED MEMORY PARALLEL REQUESTED
       2 PARALLEL PROCESSES REQUESTED WITH SINGLE THREAD PER PROCESS
    TOTAL OF     2 CORES REQUESTED
  DESIGNXPLORER REQUESTED
  INPUT FILE NAME              = E:\Uni\Compliant_Code\_ProjectScratch\ScrB01D\dummy.dat
  OUTPUT FILE NAME             = E:\Uni\Compliant_Code\_ProjectScratch\ScrB01D\solve.out
  START-UP FILE MODE           = NOREAD
  STOP FILE MODE               = NOREAD

 RELEASE= 2019 R3              BUILD= 19.5      UP20190805   VERSION=WINDOWS x64 
 CURRENT JOBNAME=file0  18:35:00  NOV 28, 2020 CP=      0.219


 PARAMETER _DS_PROGRESS =     999.0000000    

 /INPUT FILE= ds.dat  LINE=       0



 *** NOTE ***                            CP =       0.328   TIME= 18:35:00
 The /CONFIG,NOELDB command is not valid in a Distributed ANSYS          
 solution.  Command is ignored.                                          

 *GET  _WALLSTRT  FROM  ACTI  ITEM=TIME WALL  VALUE=  18.5833333    

 TITLE= 
 FEM--Static Structural (B5)                                                   


 SET PARAMETER DIMENSIONS ON  _WB_PROJECTSCRATCH_DIR
  TYPE=STRI  DIMENSIONS=      248        1        1

 PARAMETER _WB_PROJECTSCRATCH_DIR(1) = E:\Uni\Compliant_Code\_ProjectScratch\ScrB01D\

 SET PARAMETER DIMENSIONS ON  _WB_SOLVERFILES_DIR
  TYPE=STRI  DIMENSIONS=      248        1        1

 PARAMETER _WB_SOLVERFILES_DIR(1) = E:\Uni\Compliant_Code\FEM_files\dp0\SYS\MECH\

 SET PARAMETER DIMENSIONS ON  _WB_USERFILES_DIR
  TYPE=STRI  DIMENSIONS=      248        1        1

 PARAMETER _WB_USERFILES_DIR(1) = E:\Uni\Compliant_Code\FEM_files\user_files\
 --- Data in consistent MKS units. See Solving Units in the help system for more

 MKS UNITS SPECIFIED FOR INTERNAL    
  LENGTH        (l)  = METER (M)
  MASS          (M)  = KILOGRAM (KG)
  TIME          (t)  = SECOND (SEC)
  TEMPERATURE   (T)  = CELSIUS (C)
  TOFFSET            = 273.0
  CHARGE        (Q)  = COULOMB
  FORCE         (f)  = NEWTON (N) (KG-M/SEC2)
  HEAT               = JOULE (N-M)

  PRESSURE           = PASCAL (NEWTON/M**2)
  ENERGY        (W)  = JOULE (N-M)
  POWER         (P)  = WATT (N-M/SEC)
  CURRENT       (i)  = AMPERE (COULOMBS/SEC)
  CAPACITANCE   (C)  = FARAD
  INDUCTANCE    (L)  = HENRY
  MAGNETIC FLUX      = WEBER
  RESISTANCE    (R)  = OHM
  ELECTRIC POTENTIAL = VOLT

 INPUT  UNITS ARE ALSO SET TO MKS 

 *** ANSYS - ENGINEERING ANALYSIS SYSTEM  RELEASE 2019 R3          19.5     ***
 DISTRIBUTED ANSYS Academic Teaching Advanced                  

 00429955  VERSION=WINDOWS x64   18:35:00  NOV 28, 2020 CP=      0.328

 FEM--Static Structural (B5)                                                   



          ***** ANSYS ANALYSIS DEFINITION (PREP7) *****
 *********** Nodes for the whole assembly ***********
 *********** Elements for Body 1 "b_-1" ***********
 *********** Elements for Body 2 "B-1" ***********
 *********** Elements for Body 3 "d_-1" ***********
 *********** Elements for Body 4 "A-1" ***********
 *********** Elements for Body 5 "a_-1" ***********
 *********** Elements for Body 6 "D-1" ***********
 *********** Elements for Body 7 "c_-1" ***********
 *********** Elements for Body 8 "C-1" ***********
 *********** Elements for Body 9 "S-1" ***********
 *********** Send User Defined Coordinate System(s) ***********
 *********** Set Reference Temperature ***********
 *********** Send Materials ***********
 *********** Create Contact "Contact Region" ***********
             Real Constant Set For Above Contact Is 11 & 10
 *********** Create Contact "Contact Region 2" ***********
             Real Constant Set For Above Contact Is 13 & 12
 *********** Create Contact "Contact Region 3" ***********
             Real Constant Set For Above Contact Is 15 & 14
 *********** Create Contact "Contact Region 4" ***********
             Real Constant Set For Above Contact Is 17 & 16
 *********** Create Contact "Contact Region 5" ***********
             Real Constant Set For Above Contact Is 19 & 18
 *********** Create Contact "Contact Region 6" ***********
             Real Constant Set For Above Contact Is 21 & 20
 *********** Create Contact "Contact Region 7" ***********
             Real Constant Set For Above Contact Is 23 & 22
 *********** Create Contact "Contact Region 8" ***********
             Real Constant Set For Above Contact Is 25 & 24
 *********** Create Displacement Components For Use In Future MSUP Analysis ****
 *********** Fixed Supports ***********
 ******* Constant Zero Displacement X *******
 ******* Constant Zero Displacement Z *******
 *********** Create Displacement Tables and Functions ******


 ***** ROUTINE COMPLETED *****  CP =         0.531


 --- Number of total nodes = 46870
 --- Number of contact elements = 1812
 --- Number of spring elements = 0
 --- Number of bearing elements = 0
 --- Number of solid elements = 8781
 --- Number of condensed parts = 0
 --- Number of total elements = 10593

 *GET  _WALLBSOL  FROM  ACTI  ITEM=TIME WALL  VALUE=  18.5833333    
 ****************************************************************************
 *************************    SOLUTION       ********************************
 ****************************************************************************

 *****  ANSYS SOLUTION ROUTINE  *****


 PERFORM A STATIC ANALYSIS
  THIS WILL BE A NEW ANALYSIS

 LARGE DEFORMATION ANALYSIS

 PARAMETER _THICKRATIO =    0.1110000000    

 USE SPARSE MATRIX DIRECT SOLVER

 CONTACT INFORMATION PRINTOUT LEVEL       1

 NLDIAG: Nonlinear diagnostics CONT option is set to ON. 
         Writing frequency : each ITERATION.

 DEFINE RESTART CONTROL FOR LOADSTEP LAST
 AT FREQUENCY OF LAST AND NUMBER FOR OVERWRITE IS    0
 ****************************************************
 ******************* SOLVE FOR LS 1 OF 3 ****************
 *** Set Displacements ***
 CMBLOCK read of NODE component _CM39UY_YP  completed

 SELECT      COMPONENT _CM39UY_YP                      

 SPECIFIED CONSTRAINT UY   FOR SELECTED NODES            1 TO       46870 BY           1
 SET ACCORDING TO TABLE PARAMETER = _LOADVARI39YP

 ALL SELECT   FOR ITEM=NODE COMPONENT=    
  IN RANGE         1 TO      46870 STEP          1

      46870  NODES (OF      46870  DEFINED) SELECTED BY NSEL  COMMAND.
 *** Component For All Non-Zero UY Displacements ***

 SELECT      COMPONENT _CM39UY_YP                      

 DEFINITION OF COMPONENT = _DISPNONZEROUY  ENTITY=NODE

 ALL SELECT   FOR ITEM=NODE COMPONENT=    
  IN RANGE         1 TO      46870 STEP          1

      46870  NODES (OF      46870  DEFINED) SELECTED BY NSEL  COMMAND.

 PRINTOUT RESUMED BY /GOP

 USE AUTOMATIC TIME STEPPING THIS LOAD STEP

 USE       1 SUBSTEPS INITIALLY THIS LOAD STEP FOR ALL  DEGREES OF FREEDOM
 FOR AUTOMATIC TIME STEPPING:
   USE     10 SUBSTEPS AS A MAXIMUM
   USE      1 SUBSTEPS AS A MINIMUM

 TIME=  1.0000    

 ERASE THE CURRENT DATABASE OUTPUT CONTROL TABLE.


 WRITE ALL  ITEMS TO THE DATABASE WITH A FREQUENCY OF NONE
   FOR ALL APPLICABLE ENTITIES

 WRITE NSOL ITEMS TO THE DATABASE WITH A FREQUENCY OF ALL 
   FOR ALL APPLICABLE ENTITIES

 WRITE RSOL ITEMS TO THE DATABASE WITH A FREQUENCY OF ALL 
   FOR ALL APPLICABLE ENTITIES

 WRITE EANG ITEMS TO THE DATABASE WITH A FREQUENCY OF ALL 
   FOR ALL APPLICABLE ENTITIES

 WRITE ETMP ITEMS TO THE DATABASE WITH A FREQUENCY OF ALL 
   FOR ALL APPLICABLE ENTITIES

 WRITE VENG ITEMS TO THE DATABASE WITH A FREQUENCY OF ALL 
   FOR ALL APPLICABLE ENTITIES

 WRITE STRS ITEMS TO THE DATABASE WITH A FREQUENCY OF ALL 
   FOR ALL APPLICABLE ENTITIES

 WRITE EPEL ITEMS TO THE DATABASE WITH A FREQUENCY OF ALL 
   FOR ALL APPLICABLE ENTITIES

 WRITE EPPL ITEMS TO THE DATABASE WITH A FREQUENCY OF ALL 
   FOR ALL APPLICABLE ENTITIES

 WRITE CONT ITEMS TO THE DATABASE WITH A FREQUENCY OF ALL 
   FOR ALL APPLICABLE ENTITIES

 *GET  ANSINTER_  FROM  ACTI  ITEM=INT        VALUE=  0.00000000    

 *IF  ANSINTER_                         ( =   0.00000     )  NE  
      0                                 ( =   0.00000     )  THEN    

 *ENDIF

 *** NOTE ***                            CP =       0.562   TIME= 18:35:00
 The automatic domain decomposition logic has selected the MESH domain   
 decomposition method with 2 processes per solution.                     

 *****  ANSYS SOLVE    COMMAND  *****

 *** WARNING ***                         CP =       0.562   TIME= 18:35:00
 Element shape checking is currently inactive.  Issue SHPP,ON or         
 SHPP,WARN to reactivate, if desired.                                    

 *** NOTE ***                            CP =       0.594   TIME= 18:35:00
 The model data was checked and warning messages were found.             
  Please review output or errors file (                                  
 E:\Uni\Compliant_Code\_ProjectScratch\ScrB01D\file0.err ) for these     
 warning messages.                                                       

 *** SELECTION OF ELEMENT TECHNOLOGIES FOR APPLICABLE ELEMENTS ***
      --- GIVE SUGGESTIONS AND RESET THE KEY OPTIONS ---

 ELEMENT TYPE    1 IS SOLID186. KEYOPT(2)=0 IS SUGGESTED AND HAS BEEN RESET.
  KEYOPT(1-12)=    0    0    0    0    0    0    0    0    0    0    0    0

 ELEMENT TYPE    2 IS SOLID186. KEYOPT(2)=0 IS SUGGESTED AND HAS BEEN RESET.
  KEYOPT(1-12)=    0    0    0    0    0    0    0    0    0    0    0    0

 ELEMENT TYPE    3 IS SOLID186. KEYOPT(2)=0 IS SUGGESTED AND HAS BEEN RESET.
  KEYOPT(1-12)=    0    0    0    0    0    0    0    0    0    0    0    0

 ELEMENT TYPE    4 IS SOLID186. KEYOPT(2)=0 IS SUGGESTED AND HAS BEEN RESET.
  KEYOPT(1-12)=    0    0    0    0    0    0    0    0    0    0    0    0

 ELEMENT TYPE    5 IS SOLID186. KEYOPT(2)=0 IS SUGGESTED AND HAS BEEN RESET.
  KEYOPT(1-12)=    0    0    0    0    0    0    0    0    0    0    0    0

 ELEMENT TYPE    6 IS SOLID186. KEYOPT(2)=0 IS SUGGESTED AND HAS BEEN RESET.
  KEYOPT(1-12)=    0    0    0    0    0    0    0    0    0    0    0    0

 ELEMENT TYPE    7 IS SOLID186. KEYOPT(2)=0 IS SUGGESTED AND HAS BEEN RESET.
  KEYOPT(1-12)=    0    0    0    0    0    0    0    0    0    0    0    0

 ELEMENT TYPE    8 IS SOLID186. KEYOPT(2)=0 IS SUGGESTED AND HAS BEEN RESET.
  KEYOPT(1-12)=    0    0    0    0    0    0    0    0    0    0    0    0

 ELEMENT TYPE    9 IS SOLID186. KEYOPT(2)=0 IS SUGGESTED AND HAS BEEN RESET.
  KEYOPT(1-12)=    0    0    0    0    0    0    0    0    0    0    0    0



 *** ANSYS - ENGINEERING ANALYSIS SYSTEM  RELEASE 2019 R3          19.5     ***
 DISTRIBUTED ANSYS Academic Teaching Advanced                  

 00429955  VERSION=WINDOWS x64   18:35:00  NOV 28, 2020 CP=      0.594

 FEM--Static Structural (B5)                                                   



                       S O L U T I O N   O P T I O N S

   PROBLEM DIMENSIONALITY. . . . . . . . . . . . .3-D                  
   DEGREES OF FREEDOM. . . . . . UX   UY   UZ  
   ANALYSIS TYPE . . . . . . . . . . . . . . . . .STATIC (STEADY-STATE)
   OFFSET TEMPERATURE FROM ABSOLUTE ZERO . . . . .  273.15    
   NONLINEAR GEOMETRIC EFFECTS . . . . . . . . . .ON
   EQUATION SOLVER OPTION. . . . . . . . . . . . .SPARSE             
   NEWTON-RAPHSON OPTION . . . . . . . . . . . . .PROGRAM CHOSEN   
   GLOBALLY ASSEMBLED MATRIX . . . . . . . . . . .SYMMETRIC  

 *** NOTE ***                            CP =       0.625   TIME= 18:35:00
 This nonlinear analysis defaults to using the full Newton-Raphson       
 solution procedure.  This can be modified using the NROPT command.      

 *** NOTE ***                            CP =       0.625   TIME= 18:35:00
 The conditions for direct assembly have been met.  No .emat or .erot    
 files will be produced.                                                 

 *** NOTE ***                            CP =       0.812   TIME= 18:35:01
 Symmetric Deformable- deformable contact pair identified by real        
 constant set 10 and contact element type 10 has been set up.  The       
 companion pair has real constant set ID 11.  Both pairs should have     
 the same behavior.                                                      
 ANSYS will deactivate the current pair and keep its companion pair,     
 resulting in asymmetric contact.                                        
 Small sliding logic is assumed
 Contact algorithm: Augmented Lagrange method
 Contact detection at: Gauss integration point
 Contact stiffness factor FKN                  10.000    
 The resulting initial contact stiffness      0.15942E+15
 Default penetration tolerance factor FTOLN   0.10000    
 The resulting penetration tolerance          0.40769E-04
 Default opening contact stiffness OPSF will be used.
 Default tangent stiffness factor FKT          1.0000    
 Default elastic slip factor SLTOL            0.50000E-02
 The resulting elastic slip tolerance         0.24911E-05
 Update contact stiffness at each iteration
 Default Max. friction stress TAUMAX          0.10000E+21
 Average contact surface length               0.49823E-03
 Average contact pair depth                   0.40769E-03
 Default pinball region factor PINB           0.50000    
 The resulting pinball region                 0.20385E-03
 Initial penetration/gap is excluded.
 Bonded contact (always) is defined.

 *** NOTE ***                            CP =       0.844   TIME= 18:35:01
 Max.  Initial penetration 1.387778781E-17 was detected between contact  
 element 16158 and target element 16221.                                 
 ****************************************
  

 *** NOTE ***                            CP =       0.844   TIME= 18:35:01
 Symmetric Deformable- deformable contact pair identified by real        
 constant set 11 and contact element type 10 has been set up.  The       
 companion pair has real constant set ID 10.  Both pairs should have     
 the same behavior.                                                      
 ANSYS will keep the current pair and deactivate its companion pair,     
 resulting in asymmetric contact.                                        
 Small sliding logic is assumed
 Contact algorithm: Augmented Lagrange method
 Contact detection at: Gauss integration point
 Contact stiffness factor FKN                  10.000    
 The resulting initial contact stiffness      0.15942E+15
 Default penetration tolerance factor FTOLN   0.10000    
 The resulting penetration tolerance          0.33748E-03
 Default opening contact stiffness OPSF will be used.
 Default tangent stiffness factor FKT          1.0000    
 Default elastic slip factor SLTOL            0.50000E-02
 The resulting elastic slip tolerance         0.65617E-05
 Update contact stiffness at each iteration
 Default Max. friction stress TAUMAX          0.10000E+21
 Average contact surface length               0.13123E-02
 Average contact pair depth                   0.33748E-02
 Default pinball region factor PINB           0.50000    
 The resulting pinball region                 0.16874E-02

 *** NOTE ***                            CP =       0.844   TIME= 18:35:01
 One of the contact searching regions contains at least 78 target        
 elements.  You may reduce the pinball radius.                           
 Initial penetration/gap is excluded.
 Bonded contact (always) is defined.

 *** NOTE ***                            CP =       0.844   TIME= 18:35:01
 Max.  Initial penetration 6.938893904E-18 was detected between contact  
 element 16210 and target element 16055.                                 
 ****************************************
  

 *** NOTE ***                            CP =       0.844   TIME= 18:35:01
 Symmetric Deformable- deformable contact pair identified by real        
 constant set 12 and contact element type 12 has been set up.  The       
 companion pair has real constant set ID 13.  Both pairs should have     
 the same behavior.                                                      
 ANSYS will deactivate the current pair and keep its companion pair,     
 resulting in asymmetric contact.                                        
 Small sliding logic is assumed
 Contact algorithm: Augmented Lagrange method
 Contact detection at: Gauss integration point
 Contact stiffness factor FKN                  10.000    
 The resulting initial contact stiffness      0.36564E+15
 Default penetration tolerance factor FTOLN   0.10000    
 The resulting penetration tolerance          0.40588E-04
 Default opening contact stiffness OPSF will be used.
 Default tangent stiffness factor FKT          1.0000    
 Default elastic slip factor SLTOL            0.50000E-02
 The resulting elastic slip tolerance         0.24932E-05
 Update contact stiffness at each iteration
 Default Max. friction stress TAUMAX          0.10000E+21
 Average contact surface length               0.49865E-03
 Average contact pair depth                   0.40588E-03
 Default pinball region factor PINB           0.50000    
 The resulting pinball region                 0.20294E-03
 Initial penetration/gap is excluded.
 Bonded contact (always) is defined.

 *** NOTE ***                            CP =       0.844   TIME= 18:35:01
 Max.  Initial penetration 1.387778781E-17 was detected between contact  
 element 16420 and target element 16442.                                 
 ****************************************
  

 *** NOTE ***                            CP =       0.844   TIME= 18:35:01
 Symmetric Deformable- deformable contact pair identified by real        
 constant set 13 and contact element type 12 has been set up.  The       
 companion pair has real constant set ID 12.  Both pairs should have     
 the same behavior.                                                      
 ANSYS will keep the current pair and deactivate its companion pair,     
 resulting in asymmetric contact.                                        
 Small sliding logic is assumed
 Contact algorithm: Augmented Lagrange method
 Contact detection at: Gauss integration point
 Contact stiffness factor FKN                  10.000    
 The resulting initial contact stiffness      0.36564E+15
 Default penetration tolerance factor FTOLN   0.10000    
 The resulting penetration tolerance          0.14714E-03
 Default opening contact stiffness OPSF will be used.
 Default tangent stiffness factor FKT          1.0000    
 Default elastic slip factor SLTOL            0.50000E-02
 The resulting elastic slip tolerance         0.12463E-04
 Update contact stiffness at each iteration
 Default Max. friction stress TAUMAX          0.10000E+21
 Average contact surface length               0.24925E-02
 Average contact pair depth                   0.14714E-02
 Default pinball region factor PINB           0.50000    
 The resulting pinball region                 0.73569E-03
 Initial penetration/gap is excluded.
 Bonded contact (always) is defined.

 *** NOTE ***                            CP =       0.844   TIME= 18:35:01
 Max.  Initial penetration 2.775557562E-17 was detected between contact  
 element 16436 and target element 16323.                                 
 ****************************************
  

 *** NOTE ***                            CP =       0.844   TIME= 18:35:01
 Symmetric Deformable- deformable contact pair identified by real        
 constant set 14 and contact element type 14 has been set up.  The       
 companion pair has real constant set ID 15.  Both pairs should have     
 the same behavior.                                                      
 ANSYS will keep the current pair and deactivate its companion pair,     
 resulting in asymmetric contact.                                        
 Small sliding logic is assumed
 Contact algorithm: Augmented Lagrange method
 Contact detection at: Gauss integration point
 Contact stiffness factor FKN                  10.000    
 The resulting initial contact stiffness      0.34056E+15
 Default penetration tolerance factor FTOLN   0.10000    
 The resulting penetration tolerance          0.15798E-03
 Default opening contact stiffness OPSF will be used.
 Default tangent stiffness factor FKT          1.0000    
 Default elastic slip factor SLTOL            0.50000E-02
 The resulting elastic slip tolerance         0.63074E-05
 Update contact stiffness at each iteration
 Default Max. friction stress TAUMAX          0.10000E+21
 Average contact surface length               0.12615E-02
 Average contact pair depth                   0.15798E-02
 Default pinball region factor PINB           0.50000    
 The resulting pinball region                 0.78988E-03
 Initial penetration/gap is excluded.
 Bonded contact (always) is defined.

 *** NOTE ***                            CP =       0.844   TIME= 18:35:01
 Max.  Initial penetration 4.163336342E-17 was detected between contact  
 element 16471 and target element 16622.                                 
 ****************************************
  

 *** NOTE ***                            CP =       0.844   TIME= 18:35:01
 Symmetric Deformable- deformable contact pair identified by real        
 constant set 15 and contact element type 14 has been set up.  The       
 companion pair has real constant set ID 14.  Both pairs should have     
 the same behavior.                                                      
 ANSYS will deactivate the current pair and keep its companion pair,     
 resulting in asymmetric contact.                                        
 Small sliding logic is assumed
 Contact algorithm: Augmented Lagrange method
 Contact detection at: Gauss integration point
 Contact stiffness factor FKN                  10.000    
 The resulting initial contact stiffness      0.34056E+15
 Default penetration tolerance factor FTOLN   0.10000    
 The resulting penetration tolerance          0.17692E-04
 Default opening contact stiffness OPSF will be used.
 Default tangent stiffness factor FKT          1.0000    
 Default elastic slip factor SLTOL            0.50000E-02
 The resulting elastic slip tolerance         0.24753E-05
 Update contact stiffness at each iteration
 Default Max. friction stress TAUMAX          0.10000E+21
 Average contact surface length               0.49507E-03
 Average contact pair depth                   0.17692E-03
 Default pinball region factor PINB           0.50000    
 The resulting pinball region                 0.88462E-04
 Initial penetration/gap is excluded.
 Bonded contact (always) is defined.

 *** NOTE ***                            CP =       0.844   TIME= 18:35:01
 Max.  Initial penetration 1.387778781E-17 was detected between contact  
 element 16474 and target element 16448.                                 
 ****************************************
  

 *** NOTE ***                            CP =       0.844   TIME= 18:35:01
 Symmetric Deformable- deformable contact pair identified by real        
 constant set 16 and contact element type 16 has been set up.  The       
 companion pair has real constant set ID 17.  Both pairs should have     
 the same behavior.                                                      
 ANSYS will deactivate the current pair and keep its companion pair,     
 resulting in asymmetric contact.                                        
 Small sliding logic is assumed
 Contact algorithm: Augmented Lagrange method
 Contact detection at: Gauss integration point
 Contact stiffness factor FKN                  10.000    
 The resulting initial contact stiffness      0.27413E+15
 Default penetration tolerance factor FTOLN   0.10000    
 The resulting penetration tolerance          0.17059E-04
 Default opening contact stiffness OPSF will be used.
 Default tangent stiffness factor FKT          1.0000    
 Default elastic slip factor SLTOL            0.50000E-02
 The resulting elastic slip tolerance         0.24811E-05
 Update contact stiffness at each iteration
 Default Max. friction stress TAUMAX          0.10000E+21
 Average contact surface length               0.49623E-03
 Average contact pair depth                   0.17059E-03
 Default pinball region factor PINB           0.50000    
 The resulting pinball region                 0.85294E-04
 Initial penetration/gap is excluded.
 Bonded contact (always) is defined.

 *** NOTE ***                            CP =       0.844   TIME= 18:35:01
 Max.  Initial penetration 6.938893904E-18 was detected between contact  
 element 16732 and target element 16840.                                 
 ****************************************
  

 *** NOTE ***                            CP =       0.844   TIME= 18:35:01
 Symmetric Deformable- deformable contact pair identified by real        
 constant set 17 and contact element type 16 has been set up.  The       
 companion pair has real constant set ID 16.  Both pairs should have     
 the same behavior.                                                      
 ANSYS will keep the current pair and deactivate its companion pair,     
 resulting in asymmetric contact.                                        
 Small sliding logic is assumed
 Contact algorithm: Augmented Lagrange method
 Contact detection at: Gauss integration point
 Contact stiffness factor FKN                  10.000    
 The resulting initial contact stiffness      0.27413E+15
 Default penetration tolerance factor FTOLN   0.10000    
 The resulting penetration tolerance          0.19626E-03
 Default opening contact stiffness OPSF will be used.
 Default tangent stiffness factor FKT          1.0000    
 Default elastic slip factor SLTOL            0.50000E-02
 The resulting elastic slip tolerance         0.12436E-04
 Update contact stiffness at each iteration
 Default Max. friction stress TAUMAX          0.10000E+21
 Average contact surface length               0.24873E-02
 Average contact pair depth                   0.19626E-02
 Default pinball region factor PINB           0.50000    
 The resulting pinball region                 0.98129E-03
 Initial penetration/gap is excluded.
 Bonded contact (always) is defined.

 *** NOTE ***                            CP =       0.844   TIME= 18:35:01
 Max.  Initial penetration 6.938893904E-18 was detected between contact  
 element 16832 and target element 16636.                                 
 ****************************************
  

 *** NOTE ***                            CP =       0.844   TIME= 18:35:01
 Symmetric Deformable- deformable contact pair identified by real        
 constant set 18 and contact element type 18 has been set up.  The       
 companion pair has real constant set ID 19.  Both pairs should have     
 the same behavior.                                                      
 ANSYS will keep the current pair and deactivate its companion pair,     
 resulting in asymmetric contact.                                        
 Small sliding logic is assumed
 Contact algorithm: Augmented Lagrange method
 Contact detection at: Gauss integration point
 Contact stiffness factor FKN                  10.000    
 The resulting initial contact stiffness      0.87200E+14
 Default penetration tolerance factor FTOLN   0.10000    
 The resulting penetration tolerance          0.17059E-04
 Default opening contact stiffness OPSF will be used.
 Default tangent stiffness factor FKT          1.0000    
 Default elastic slip factor SLTOL            0.50000E-02
 The resulting elastic slip tolerance         0.24811E-05
 Update contact stiffness at each iteration
 Default Max. friction stress TAUMAX          0.10000E+21
 Average contact surface length               0.49623E-03
 Average contact pair depth                   0.17059E-03
 Default pinball region factor PINB           0.50000    
 The resulting pinball region                 0.85294E-04
 Initial penetration/gap is excluded.
 Bonded contact (always) is defined.

 *** NOTE ***                            CP =       0.844   TIME= 18:35:01
 Max.  Initial penetration 1.387778781E-17 was detected between contact  
 element 17002 and target element 17060.                                 
 ****************************************
  

 *** NOTE ***                            CP =       0.844   TIME= 18:35:01
 Symmetric Deformable- deformable contact pair identified by real        
 constant set 19 and contact element type 18 has been set up.  The       
 companion pair has real constant set ID 18.  Both pairs should have     
 the same behavior.                                                      
 ANSYS will deactivate the current pair and keep its companion pair,     
 resulting in asymmetric contact.                                        
 Small sliding logic is assumed
 Contact algorithm: Augmented Lagrange method
 Contact detection at: Gauss integration point
 Contact stiffness factor FKN                  10.000    
 The resulting initial contact stiffness      0.87200E+14
 Default penetration tolerance factor FTOLN   0.10000    
 The resulting penetration tolerance          0.61697E-03
 Default opening contact stiffness OPSF will be used.
 Default tangent stiffness factor FKT          1.0000    
 Default elastic slip factor SLTOL            0.50000E-02
 The resulting elastic slip tolerance         0.12436E-04
 Update contact stiffness at each iteration
 Default Max. friction stress TAUMAX          0.10000E+21
 Average contact surface length               0.24873E-02
 Average contact pair depth                   0.61697E-02
 Default pinball region factor PINB           0.50000    
 The resulting pinball region                 0.30849E-02

 *** NOTE ***                            CP =       0.844   TIME= 18:35:01
 One of the contact searching regions contains at least 102 target       
 elements.  You may reduce the pinball radius.                           
 Initial penetration/gap is excluded.
 Bonded contact (always) is defined.

 *** NOTE ***                            CP =       0.844   TIME= 18:35:01
 Max.  Initial penetration 6.938893904E-18 was detected between contact  
 element 17051 and target element 16884.                                 
 ****************************************
  

 *** NOTE ***                            CP =       0.844   TIME= 18:35:01
 Symmetric Deformable- deformable contact pair identified by real        
 constant set 20 and contact element type 20 has been set up.  The       
 companion pair has real constant set ID 21.  Both pairs should have     
 the same behavior.                                                      
 ANSYS will keep the current pair and deactivate its companion pair,     
 resulting in asymmetric contact.                                        
 Small sliding logic is assumed
 Contact algorithm: Augmented Lagrange method
 Contact detection at: Gauss integration point
 Contact stiffness factor FKN                  10.000    
 The resulting initial contact stiffness      0.27084E+15
 Default penetration tolerance factor FTOLN   0.10000    
 The resulting penetration tolerance          0.19864E-03
 Default opening contact stiffness OPSF will be used.
 Default tangent stiffness factor FKT          1.0000    
 Default elastic slip factor SLTOL            0.50000E-02
 The resulting elastic slip tolerance         0.12436E-04
 Update contact stiffness at each iteration
 Default Max. friction stress TAUMAX          0.10000E+21
 Average contact surface length               0.24873E-02
 Average contact pair depth                   0.19864E-02
 Default pinball region factor PINB           0.50000    
 The resulting pinball region                 0.99321E-03
 Initial penetration/gap is excluded.
 Bonded contact (always) is defined.

 *** NOTE ***                            CP =       0.844   TIME= 18:35:01
 Max.  Initial penetration 6.938893904E-18 was detected between contact  
 element 17071 and target element 17219.                                 
 ****************************************
  

 *** NOTE ***                            CP =       0.844   TIME= 18:35:01
 Symmetric Deformable- deformable contact pair identified by real        
 constant set 21 and contact element type 20 has been set up.  The       
 companion pair has real constant set ID 20.  Both pairs should have     
 the same behavior.                                                      
 ANSYS will deactivate the current pair and keep its companion pair,     
 resulting in asymmetric contact.                                        
 Small sliding logic is assumed
 Contact algorithm: Augmented Lagrange method
 Contact detection at: Gauss integration point
 Contact stiffness factor FKN                  10.000    
 The resulting initial contact stiffness      0.27084E+15
 Default penetration tolerance factor FTOLN   0.10000    
 The resulting penetration tolerance          0.17059E-04
 Default opening contact stiffness OPSF will be used.
 Default tangent stiffness factor FKT          1.0000    
 Default elastic slip factor SLTOL            0.50000E-02
 The resulting elastic slip tolerance         0.24811E-05
 Update contact stiffness at each iteration
 Default Max. friction stress TAUMAX          0.10000E+21
 Average contact surface length               0.49623E-03
 Average contact pair depth                   0.17059E-03
 Default pinball region factor PINB           0.50000    
 The resulting pinball region                 0.85294E-04
 Initial penetration/gap is excluded.
 Bonded contact (always) is defined.

 *** NOTE ***                            CP =       0.844   TIME= 18:35:01
 Max.  Initial penetration 1.387778781E-17 was detected between contact  
 element 17084 and target element 17064.                                 
 ****************************************
  

 *** NOTE ***                            CP =       0.844   TIME= 18:35:01
 Symmetric Deformable- deformable contact pair identified by real        
 constant set 22 and contact element type 22 has been set up.  The       
 companion pair has real constant set ID 23.  Both pairs should have     
 the same behavior.                                                      
 ANSYS will deactivate the current pair and keep its companion pair,     
 resulting in asymmetric contact.                                        
 Small sliding logic is assumed
 Contact algorithm: Augmented Lagrange method
 Contact detection at: Gauss integration point
 Contact stiffness factor FKN                  10.000    
 The resulting initial contact stiffness      0.25124E+15
 Default penetration tolerance factor FTOLN   0.10000    
 The resulting penetration tolerance          0.17059E-04
 Default opening contact stiffness OPSF will be used.
 Default tangent stiffness factor FKT          1.0000    
 Default elastic slip factor SLTOL            0.50000E-02
 The resulting elastic slip tolerance         0.24811E-05
 Update contact stiffness at each iteration
 Default Max. friction stress TAUMAX          0.10000E+21
 Average contact surface length               0.49623E-03
 Average contact pair depth                   0.17059E-03
 Default pinball region factor PINB           0.50000    
 The resulting pinball region                 0.85294E-04
 Initial penetration/gap is excluded.
 Bonded contact (always) is defined.

 *** NOTE ***                            CP =       0.844   TIME= 18:35:01
 Max.  Initial penetration 1.387778781E-17 was detected between contact  
 element 17410 and target element 17495.                                 
 ****************************************
  

 *** NOTE ***                            CP =       0.844   TIME= 18:35:01
 Symmetric Deformable- deformable contact pair identified by real        
 constant set 23 and contact element type 22 has been set up.  The       
 companion pair has real constant set ID 22.  Both pairs should have     
 the same behavior.                                                      
 ANSYS will keep the current pair and deactivate its companion pair,     
 resulting in asymmetric contact.                                        
 Small sliding logic is assumed
 Contact algorithm: Augmented Lagrange method
 Contact detection at: Gauss integration point
 Contact stiffness factor FKN                  10.000    
 The resulting initial contact stiffness      0.25124E+15
 Default penetration tolerance factor FTOLN   0.10000    
 The resulting penetration tolerance          0.21414E-03
 Default opening contact stiffness OPSF will be used.
 Default tangent stiffness factor FKT          1.0000    
 Default elastic slip factor SLTOL            0.50000E-02
 The resulting elastic slip tolerance         0.12479E-04
 Update contact stiffness at each iteration
 Default Max. friction stress TAUMAX          0.10000E+21
 Average contact surface length               0.24958E-02
 Average contact pair depth                   0.21414E-02
 Default pinball region factor PINB           0.50000    
 The resulting pinball region                 0.10707E-02

 *** NOTE ***                            CP =       0.844   TIME= 18:35:01
 One of the contact searching regions contains at least 56 target        
 elements.  You may reduce the pinball radius.                           
 Initial penetration/gap is excluded.
 Bonded contact (always) is defined.

 *** NOTE ***                            CP =       0.844   TIME= 18:35:01
 Max.  Initial penetration 6.938893904E-18 was detected between contact  
 element 17486 and target element 17314.                                 
 ****************************************
  

 *** NOTE ***                            CP =       0.844   TIME= 18:35:01
 Symmetric Deformable- deformable contact pair identified by real        
 constant set 24 and contact element type 24 has been set up.  The       
 companion pair has real constant set ID 25.  Both pairs should have     
 the same behavior.                                                      
 ANSYS will deactivate the current pair and keep its companion pair,     
 resulting in asymmetric contact.                                        
 Small sliding logic is assumed
 Contact algorithm: Augmented Lagrange method
 Contact detection at: Gauss integration point
 Contact stiffness factor FKN                  10.000    
 The resulting initial contact stiffness      0.10561E+16
 Default penetration tolerance factor FTOLN   0.10000    
 The resulting penetration tolerance          0.17059E-04
 Default opening contact stiffness OPSF will be used.
 Default tangent stiffness factor FKT          1.0000    
 Default elastic slip factor SLTOL            0.50000E-02
 The resulting elastic slip tolerance         0.24811E-05
 Update contact stiffness at each iteration
 Default Max. friction stress TAUMAX          0.10000E+21
 Average contact surface length               0.49623E-03
 Average contact pair depth                   0.17059E-03
 Default pinball region factor PINB           0.50000    
 The resulting pinball region                 0.85294E-04
 Initial penetration/gap is excluded.
 Bonded contact (always) is defined.

 *** NOTE ***                            CP =       0.844   TIME= 18:35:01
 Max.  Initial penetration 1.387778781E-17 was detected between contact  
 element 17622 and target element 17802.                                 
 ****************************************
  

 *** NOTE ***                            CP =       0.844   TIME= 18:35:01
 Symmetric Deformable- deformable contact pair identified by real        
 constant set 25 and contact element type 24 has been set up.  The       
 companion pair has real constant set ID 24.  Both pairs should have     
 the same behavior.                                                      
 ANSYS will keep the current pair and deactivate its companion pair,     
 resulting in asymmetric contact.                                        
 Small sliding logic is assumed
 Contact algorithm: Augmented Lagrange method
 Contact detection at: Gauss integration point
 Contact stiffness factor FKN                  10.000    
 The resulting initial contact stiffness      0.10561E+16
 Default penetration tolerance factor FTOLN   0.10000    
 The resulting penetration tolerance          0.50940E-04
 Default opening contact stiffness OPSF will be used.
 Default tangent stiffness factor FKT          1.0000    
 Default elastic slip factor SLTOL            0.50000E-02
 The resulting elastic slip tolerance         0.27081E-05
 Update contact stiffness at each iteration
 Default Max. friction stress TAUMAX          0.10000E+21
 Average contact surface length               0.54162E-03
 Average contact pair depth                   0.50940E-03
 Default pinball region factor PINB           0.50000    
 The resulting pinball region                 0.25470E-03
 Initial penetration/gap is excluded.
 Bonded contact (always) is defined.

 *** NOTE ***                            CP =       0.844   TIME= 18:35:01
 Max.  Initial penetration 2.775557562E-17 was detected between contact  
 element 17741 and target element 17550.                                 
 ****************************************
  
  
  

  
  
     D I S T R I B U T E D   D O M A I N   D E C O M P O S E R
  
  ...Number of elements: 10593
  ...Number of nodes:    46870
  ...Decompose to 2 CPU domains
  ...Element load balance ratio =     1.009


                      L O A D   S T E P   O P T I O N S

   LOAD STEP NUMBER. . . . . . . . . . . . . . . .     1
   TIME AT END OF THE LOAD STEP. . . . . . . . . .  1.0000    
   AUTOMATIC TIME STEPPING . . . . . . . . . . . .    ON
      INITIAL NUMBER OF SUBSTEPS . . . . . . . . .     1
      MAXIMUM NUMBER OF SUBSTEPS . . . . . . . . .    10
      MINIMUM NUMBER OF SUBSTEPS . . . . . . . . .     1
   MAXIMUM NUMBER OF EQUILIBRIUM ITERATIONS. . . .    15
   STEP CHANGE BOUNDARY CONDITIONS . . . . . . . .    NO
   STRESS-STIFFENING . . . . . . . . . . . . . . .    ON
   TERMINATE ANALYSIS IF NOT CONVERGED . . . . . .YES (EXIT)  
   CONVERGENCE CONTROLS. . . . . . . . . . . . . .USE DEFAULTS
   PRINT OUTPUT CONTROLS . . . . . . . . . . . . .NO PRINTOUT
   DATABASE OUTPUT CONTROLS
      ITEM     FREQUENCY   COMPONENT
       ALL       NONE               
      NSOL        ALL               
      RSOL        ALL               
      EANG        ALL               
      ETMP        ALL               
      VENG        ALL               
      STRS        ALL               
      EPEL        ALL               
      EPPL        ALL               
      CONT        ALL               


 SOLUTION MONITORING INFO IS WRITTEN TO FILE= file.mntr                                                                                                                                                                                                                                                           

 *** NOTE ***                            CP =       1.062   TIME= 18:35:01
 Symmetric Deformable- deformable contact pair identified by real        
 constant set 10 and contact element type 10 has been set up.  The       
 companion pair has real constant set ID 11.  Both pairs should have     
 the same behavior.                                                      
 ANSYS will deactivate the current pair and keep its companion pair,     
 resulting in asymmetric contact.                                        
 Small sliding logic is assumed
 Contact algorithm: Augmented Lagrange method
 Contact detection at: Gauss integration point
 Contact stiffness factor FKN                  10.000    
 The resulting initial contact stiffness      0.15942E+15
 Default penetration tolerance factor FTOLN   0.10000    
 The resulting penetration tolerance          0.40769E-04
 Default opening contact stiffness OPSF will be used.
 Default tangent stiffness factor FKT          1.0000    
 Default elastic slip factor SLTOL            0.50000E-02
 The resulting elastic slip tolerance         0.24911E-05
 Update contact stiffness at each iteration
 Default Max. friction stress TAUMAX          0.10000E+21
 Average contact surface length               0.49823E-03
 Average contact pair depth                   0.40769E-03
 Default pinball region factor PINB           0.50000    
 The resulting pinball region                 0.20385E-03
 Initial penetration/gap is excluded.
 Bonded contact (always) is defined.

 *** NOTE ***                            CP =       1.062   TIME= 18:35:01
 Max.  Initial penetration 1.387778781E-17 was detected between contact  
 element 16158 and target element 16221.                                 
 ****************************************
  

 *** NOTE ***                            CP =       1.062   TIME= 18:35:01
 Symmetric Deformable- deformable contact pair identified by real        
 constant set 11 and contact element type 10 has been set up.  The       
 companion pair has real constant set ID 10.  Both pairs should have     
 the same behavior.                                                      
 ANSYS will keep the current pair and deactivate its companion pair,     
 resulting in asymmetric contact.                                        
 Small sliding logic is assumed
 Contact algorithm: Augmented Lagrange method
 Contact detection at: Gauss integration point
 Contact stiffness factor FKN                  10.000    
 The resulting initial contact stiffness      0.15942E+15
 Default penetration tolerance factor FTOLN   0.10000    
 The resulting penetration tolerance          0.33748E-03
 Default opening contact stiffness OPSF will be used.
 Default tangent stiffness factor FKT          1.0000    
 Default elastic slip factor SLTOL            0.50000E-02
 The resulting elastic slip tolerance         0.65617E-05
 Update contact stiffness at each iteration
 Default Max. friction stress TAUMAX          0.10000E+21
 Average contact surface length               0.13123E-02
 Average contact pair depth                   0.33748E-02
 Default pinball region factor PINB           0.50000    
 The resulting pinball region                 0.16874E-02

 *** NOTE ***                            CP =       1.062   TIME= 18:35:01
 One of the contact searching regions contains at least 78 target        
 elements.  You may reduce the pinball radius.                           
 Initial penetration/gap is excluded.
 Bonded contact (always) is defined.

 *** NOTE ***                            CP =       1.062   TIME= 18:35:01
 Max.  Initial penetration 6.938893904E-18 was detected between contact  
 element 16210 and target element 16055.                                 
 ****************************************
  

 *** NOTE ***                            CP =       1.062   TIME= 18:35:01
 Symmetric Deformable- deformable contact pair identified by real        
 constant set 16 and contact element type 16 has been set up.  The       
 companion pair has real constant set ID 17.  Both pairs should have     
 the same behavior.                                                      
 ANSYS will deactivate the current pair and keep its companion pair,     
 resulting in asymmetric contact.                                        
 Small sliding logic is assumed
 Contact algorithm: Augmented Lagrange method
 Contact detection at: Gauss integration point
 Contact stiffness factor FKN                  10.000    
 The resulting initial contact stiffness      0.27413E+15
 Default penetration tolerance factor FTOLN   0.10000    
 The resulting penetration tolerance          0.17059E-04
 Default opening contact stiffness OPSF will be used.
 Default tangent stiffness factor FKT          1.0000    
 Default elastic slip factor SLTOL            0.50000E-02
 The resulting elastic slip tolerance         0.24811E-05
 Update contact stiffness at each iteration
 Default Max. friction stress TAUMAX          0.10000E+21
 Average contact surface length               0.49623E-03
 Average contact pair depth                   0.17059E-03
 Default pinball region factor PINB           0.50000    
 The resulting pinball region                 0.85294E-04
 Initial penetration/gap is excluded.
 Bonded contact (always) is defined.

 *** NOTE ***                            CP =       1.062   TIME= 18:35:01
 Max.  Initial penetration 6.938893904E-18 was detected between contact  
 element 16732 and target element 16840.                                 
 ****************************************
  

 *** NOTE ***                            CP =       1.062   TIME= 18:35:01
 Symmetric Deformable- deformable contact pair identified by real        
 constant set 17 and contact element type 16 has been set up.  The       
 companion pair has real constant set ID 16.  Both pairs should have     
 the same behavior.                                                      
 ANSYS will keep the current pair and deactivate its companion pair,     
 resulting in asymmetric contact.                                        
 Small sliding logic is assumed
 Contact algorithm: Augmented Lagrange method
 Contact detection at: Gauss integration point
 Contact stiffness factor FKN                  10.000    
 The resulting initial contact stiffness      0.27413E+15
 Default penetration tolerance factor FTOLN   0.10000    
 The resulting penetration tolerance          0.19626E-03
 Default opening contact stiffness OPSF will be used.
 Default tangent stiffness factor FKT          1.0000    
 Default elastic slip factor SLTOL            0.50000E-02
 The resulting elastic slip tolerance         0.12436E-04
 Update contact stiffness at each iteration
 Default Max. friction stress TAUMAX          0.10000E+21
 Average contact surface length               0.24873E-02
 Average contact pair depth                   0.19626E-02
 Default pinball region factor PINB           0.50000    
 The resulting pinball region                 0.98129E-03
 Initial penetration/gap is excluded.
 Bonded contact (always) is defined.

 *** NOTE ***                            CP =       1.062   TIME= 18:35:01
 Max.  Initial penetration 6.938893904E-18 was detected between contact  
 element 16832 and target element 16636.                                 
 ****************************************
  

 *** NOTE ***                            CP =       1.062   TIME= 18:35:01
 Symmetric Deformable- deformable contact pair identified by real        
 constant set 18 and contact element type 18 has been set up.  The       
 companion pair has real constant set ID 19.  Both pairs should have     
 the same behavior.                                                      
 ANSYS will keep the current pair and deactivate its companion pair,     
 resulting in asymmetric contact.                                        
 Small sliding logic is assumed
 Contact algorithm: Augmented Lagrange method
 Contact detection at: Gauss integration point
 Contact stiffness factor FKN                  10.000    
 The resulting initial contact stiffness      0.87200E+14
 Default penetration tolerance factor FTOLN   0.10000    
 The resulting penetration tolerance          0.17059E-04
 Default opening contact stiffness OPSF will be used.
 Default tangent stiffness factor FKT          1.0000    
 Default elastic slip factor SLTOL            0.50000E-02
 The resulting elastic slip tolerance         0.24811E-05
 Update contact stiffness at each iteration
 Default Max. friction stress TAUMAX          0.10000E+21
 Average contact surface length               0.49623E-03
 Average contact pair depth                   0.17059E-03
 Default pinball region factor PINB           0.50000    
 The resulting pinball region                 0.85294E-04
 Initial penetration/gap is excluded.
 Bonded contact (always) is defined.

 *** NOTE ***                            CP =       1.062   TIME= 18:35:01
 Max.  Initial penetration 1.387778781E-17 was detected between contact  
 element 17002 and target element 17060.                                 
 ****************************************
  

 *** NOTE ***                            CP =       1.062   TIME= 18:35:01
 Symmetric Deformable- deformable contact pair identified by real        
 constant set 19 and contact element type 18 has been set up.  The       
 companion pair has real constant set ID 18.  Both pairs should have     
 the same behavior.                                                      
 ANSYS will deactivate the current pair and keep its companion pair,     
 resulting in asymmetric contact.                                        
 Small sliding logic is assumed
 Contact algorithm: Augmented Lagrange method
 Contact detection at: Gauss integration point
 Contact stiffness factor FKN                  10.000    
 The resulting initial contact stiffness      0.87200E+14
 Default penetration tolerance factor FTOLN   0.10000    
 The resulting penetration tolerance          0.61697E-03
 Default opening contact stiffness OPSF will be used.
 Default tangent stiffness factor FKT          1.0000    
 Default elastic slip factor SLTOL            0.50000E-02
 The resulting elastic slip tolerance         0.12436E-04
 Update contact stiffness at each iteration
 Default Max. friction stress TAUMAX          0.10000E+21
 Average contact surface length               0.24873E-02
 Average contact pair depth                   0.61697E-02
 Default pinball region factor PINB           0.50000    
 The resulting pinball region                 0.30849E-02

 *** NOTE ***                            CP =       1.062   TIME= 18:35:01
 One of the contact searching regions contains at least 102 target       
 elements.  You may reduce the pinball radius.                           
 Initial penetration/gap is excluded.
 Bonded contact (always) is defined.

 *** NOTE ***                            CP =       1.062   TIME= 18:35:01
 Max.  Initial penetration 6.938893904E-18 was detected between contact  
 element 17051 and target element 16884.                                 
 ****************************************
  

 *** NOTE ***                            CP =       1.062   TIME= 18:35:01
 Symmetric Deformable- deformable contact pair identified by real        
 constant set 22 and contact element type 22 has been set up.  The       
 companion pair has real constant set ID 23.  Both pairs should have     
 the same behavior.                                                      
 ANSYS will deactivate the current pair and keep its companion pair,     
 resulting in asymmetric contact.                                        
 Small sliding logic is assumed
 Contact algorithm: Augmented Lagrange method
 Contact detection at: Gauss integration point
 Contact stiffness factor FKN                  10.000    
 The resulting initial contact stiffness      0.25124E+15
 Default penetration tolerance factor FTOLN   0.10000    
 The resulting penetration tolerance          0.17059E-04
 Default opening contact stiffness OPSF will be used.
 Default tangent stiffness factor FKT          1.0000    
 Default elastic slip factor SLTOL            0.50000E-02
 The resulting elastic slip tolerance         0.24811E-05
 Update contact stiffness at each iteration
 Default Max. friction stress TAUMAX          0.10000E+21
 Average contact surface length               0.49623E-03
 Average contact pair depth                   0.17059E-03
 Default pinball region factor PINB           0.50000    
 The resulting pinball region                 0.85294E-04
 Initial penetration/gap is excluded.
 Bonded contact (always) is defined.

 *** NOTE ***                            CP =       1.062   TIME= 18:35:01
 Max.  Initial penetration 1.387778781E-17 was detected between contact  
 element 17410 and target element 17495.                                 
 ****************************************
  

 *** NOTE ***                            CP =       1.062   TIME= 18:35:01
 Symmetric Deformable- deformable contact pair identified by real        
 constant set 23 and contact element type 22 has been set up.  The       
 companion pair has real constant set ID 22.  Both pairs should have     
 the same behavior.                                                      
 ANSYS will keep the current pair and deactivate its companion pair,     
 resulting in asymmetric contact.                                        
 Small sliding logic is assumed
 Contact algorithm: Augmented Lagrange method
 Contact detection at: Gauss integration point
 Contact stiffness factor FKN                  10.000    
 The resulting initial contact stiffness      0.25124E+15
 Default penetration tolerance factor FTOLN   0.10000    
 The resulting penetration tolerance          0.21414E-03
 Default opening contact stiffness OPSF will be used.
 Default tangent stiffness factor FKT          1.0000    
 Default elastic slip factor SLTOL            0.50000E-02
 The resulting elastic slip tolerance         0.12479E-04
 Update contact stiffness at each iteration
 Default Max. friction stress TAUMAX          0.10000E+21
 Average contact surface length               0.24958E-02
 Average contact pair depth                   0.21414E-02
 Default pinball region factor PINB           0.50000    
 The resulting pinball region                 0.10707E-02

 *** NOTE ***                            CP =       1.062   TIME= 18:35:01
 One of the contact searching regions contains at least 56 target        
 elements.  You may reduce the pinball radius.                           
 Initial penetration/gap is excluded.
 Bonded contact (always) is defined.

 *** NOTE ***                            CP =       1.062   TIME= 18:35:01
 Max.  Initial penetration 6.938893904E-18 was detected between contact  
 element 17486 and target element 17314.                                 
 ****************************************
  
 MAXIMUM NUMBER OF EQUILIBRIUM ITERATIONS HAS BEEN MODIFIED              
  TO BE, NEQIT = 25, BY SOLUTION CONTROL LOGIC.                          

  
 *************************************************
  SUMMARY FOR CONTACT PAIR IDENTIFIED BY REAL CONSTANT SET          10

 *** NOTE ***                            CP =       2.281   TIME= 18:35:03
 Contact pair is inactive.                                               
  

 *** NOTE ***                            CP =       2.281   TIME= 18:35:03
 One of the contact searching regions contains at least 78 target        
 elements.  You may reduce the pinball radius (current value             
 1.68741905E-03) for contact pair identified by real constant set 11 to  
 speed up contact searching.                                             
  
 *************************************************
  SUMMARY FOR CONTACT PAIR IDENTIFIED BY REAL CONSTANT SET          16

 *** NOTE ***                            CP =       2.281   TIME= 18:35:03
 Contact pair is inactive.                                               
  

 *** NOTE ***                            CP =       2.281   TIME= 18:35:03
 One of the contact searching regions contains at least 75 target        
 elements.  You may reduce the pinball radius (current value             
 9.81287234E-04) for contact pair identified by real constant set 17 to  
 speed up contact searching.                                             
  
 *************************************************
  SUMMARY FOR CONTACT PAIR IDENTIFIED BY REAL CONSTANT SET          18
 Max.  Penetration of -8.155461652E-31 has been detected between contact 
 element 16984 and target element 17059.                                 
  
 Max.  Geometrical gap of 6.938893904E-18 has been detected between      
 contact element 17002 and target element 17060.                         
  
 Max.  Geometrical penetration of -1.387778781E-17 has been detected     
 between contact element 17002 and target element 17060.                 
 For total 102 contact elements, there are 78 elements are in contact.   
 There are 78 elements are in sticking.                                  
 Contacting area 1.829999999E-05.                                        
 Max.  Pinball distance 8.529412044E-05.                                 
 One of the contact searching regions contains at least 5 target         
 elements.                                                               
 Max.  Pressure/force 3.843256471E-06.                                   
 Max.  Normal stiffness 8.720013736E+12.                                 
 Min.  Normal stiffness 8.720013736E+12.                                 
 Max.  Tangential stiffness 6.540010302E+11.                             
 Min.  Tangential stiffness 6.540010302E+11.                             
 *************************************************
  
 *************************************************
  SUMMARY FOR CONTACT PAIR IDENTIFIED BY REAL CONSTANT SET          19

 *** NOTE ***                            CP =       2.281   TIME= 18:35:03
 Contact pair is inactive.                                               
  
 *************************************************
  SUMMARY FOR CONTACT PAIR IDENTIFIED BY REAL CONSTANT SET          22

 *** NOTE ***                            CP =       2.281   TIME= 18:35:03
 Contact pair is inactive.                                               
  

 *** NOTE ***                            CP =       2.281   TIME= 18:35:03
 One of the contact searching regions contains at least 75 target        
 elements.  You may reduce the pinball radius (current value             
 1.070676041E-03) for contact pair identified by real constant set 23    
 to speed up contact searching.                                          


                         ***********  PRECISE MASS SUMMARY  ***********

   TOTAL RIGID BODY MASS MATRIX ABOUT ORIGIN
               Translational mass               |   Coupled translational/rotational mass
        0.11728E-01    0.0000        0.0000     |     0.0000       0.70796E-03  -0.51912E-03
         0.0000       0.11728E-01    0.0000     |   -0.70796E-03    0.0000       0.17882E-03
         0.0000        0.0000       0.11728E-01 |    0.51912E-03  -0.17882E-03    0.0000    
     ------------------------------------------ | ------------------------------------------
                                                |         Rotational mass (inertia)
                                                |    0.75416E-04  -0.79597E-05  -0.10795E-04
                                                |   -0.79597E-05   0.53715E-04  -0.31338E-04
                                                |   -0.10795E-04  -0.31338E-04   0.43640E-04

   TOTAL MASS = 0.11728E-01
     The mass principal axes coincide with the global Cartesian axes

   CENTER OF MASS (X,Y,Z)=   0.15248E-01   0.44265E-01   0.60366E-01

   TOTAL INERTIA ABOUT CENTER OF MASS
        0.97007E-05  -0.44337E-07  -0.55471E-19
       -0.44337E-07   0.82517E-05  -0.40798E-18
       -0.55471E-19  -0.40798E-18   0.17935E-04

   PRINCIPAL INERTIAS =   0.97021E-05   0.82504E-05   0.17935E-04
   ORIENTATION VECTORS OF THE INERTIA PRINCIPAL AXES IN GLOBAL CARTESIAN
     ( 1.000,-0.031, 0.000) ( 0.031, 1.000, 0.000) (-0.000,-0.000, 1.000) 


  *** MASS SUMMARY BY ELEMENT TYPE ***

  TYPE      MASS
     1  0.150720E-03
     2  0.931020E-03
     3  0.376800E-04
     4  0.153778E-02
     5  0.376800E-04
     6  0.997983E-03
     7  0.329700E-04
     8  0.180080E-02
     9  0.620102E-02

 Range of element maximum matrix coefficients in global coordinates
 Maximum = 401139602 at element 8522.                                    
 Minimum = 109448.732 at element 17045.                                  

   *** ELEMENT MATRIX FORMULATION TIMES
     TYPE    NUMBER   ENAME      TOTAL CP  AVE CP

        1       192  SOLID186      0.031   0.000163
        2       100  SOLID186      0.031   0.000313
        3       192  SOLID186      0.047   0.000244
        4        77  SOLID186      0.000   0.000000
        5       192  SOLID186      0.062   0.000326
        6        64  SOLID186      0.016   0.000244
        7       168  SOLID186      0.047   0.000279
        8      7690  SOLID186      1.594   0.000207
        9       106  SOLID186      0.016   0.000147
       10        86  CONTA174      0.000   0.000000
       11        86  TARGE170      0.000   0.000000
       12       109  CONTA174      0.000   0.000000
       13       109  TARGE170      0.000   0.000000
       14        92  CONTA174      0.016   0.000170
       15        92  TARGE170      0.000   0.000000
       16       109  CONTA174      0.016   0.000143
       17       109  TARGE170      0.000   0.000000
       18       109  CONTA174      0.016   0.000143
       19       109  TARGE170      0.000   0.000000
       20       109  CONTA174      0.000   0.000000
       21       109  TARGE170      0.000   0.000000
       22       110  CONTA174      0.016   0.000142
       23       110  TARGE170      0.000   0.000000
       24       182  CONTA174      0.016   0.000086
       25       182  TARGE170      0.000   0.000000
 Time at end of element matrix formulation CP = 2.28125.                 

 ALL CURRENT ANSYS DATA WRITTEN TO FILE NAME= file.rdb
  FOR POSSIBLE RESUME FROM THIS POINT
     FORCE CONVERGENCE VALUE  =  0.7414E+05  CRITERION=   378.3    

 DISTRIBUTED SPARSE MATRIX DIRECT SOLVER.
  Number of equations =      139845,    Maximum wavefront =    261

  Local memory allocated for solver              =    594.377 MB
  Local memory required for in-core solution     =    526.190 MB
  Local memory required for out-of-core solution =    216.777 MB

  Total memory allocated for solver              =   1140.087 MB
  Total memory required for in-core solution     =   1009.733 MB
  Total memory required for out-of-core solution =    422.903 MB

 *** NOTE ***                            CP =       3.141   TIME= 18:35:04
 The Distributed Sparse Matrix Solver is currently running in the        
 in-core memory mode.  This memory mode uses the most amount of memory   
 in order to avoid using the hard drive as much as possible, which most  
 often results in the fastest solution time.  This mode is recommended   
 if enough physical memory is present to accommodate all of the solver   
 data.                                                                   
 curEqn=  51472  totEqn=  69948 Job CP sec=      4.828
      Factor Done=  51% Factor Wall sec=      1.214 rate=   16472.7 Mflops
 curEqn=  69948  totEqn=  69948 Job CP sec=      6.000
      Factor Done= 100% Factor Wall sec=      2.415 rate=   16216.2 Mflops
 Distributed sparse solver maximum pivot= 1.604558405E+09 at node 44116  
 UX.                                                                     
 Distributed sparse solver minimum pivot= -5.844049156E-08 at node 4411  
 UX.                                                                     
 Distributed sparse solver minimum pivot in absolute value=              
 8.170864046E-09 at node 4402 UX.                                        

 *** WARNING ***                         CP =       6.000   TIME= 18:35:07
 There is at least 1 small equation solver pivot term (e.g., at the UX   
 degree of freedom of node 4402) which may indicate a numerically        
 unstable model.  Please check your results carefully.                   
     DISP CONVERGENCE VALUE   =  0.7010E-01  CRITERION=  0.3576E-02
    EQUIL ITER   1 COMPLETED.  NEW TRIANG MATRIX.  MAX DOF INC=  0.7010E-01
     DISP CONVERGENCE VALUE   =  0.3505E-02  CRITERION=  0.3649E-02 <<< CONVERGED
     LINE SEARCH PARAMETER =  0.5000E-01 SCALED MAX DOF INC =  0.3505E-02
     FORCE CONVERGENCE VALUE  =  0.2169E+06  CRITERION=   366.7    
    EQUIL ITER   2 COMPLETED.  NEW TRIANG MATRIX.  MAX DOF INC=  0.3268E-02

 *** ERROR ***                           CP =      11.141   TIME= 18:35:12
 Element 536 (type = 6, SOLID186) (and maybe other elements) has become  
 highly distorted.  Excessive distortion of elements is usually a        
 symptom indicating the need for corrective action elsewhere.  Try       
 incrementing the load more slowly (increase the number of substeps or   
 decrease the time step size).  You may need to improve your mesh to     
 obtain elements with better aspect ratios.  Also consider the behavior  
 of materials, contact pairs, and/or constraint equations.  Please rule  
 out other root causes of this failure before attempting rezoning or     
 nonlinear adaptive solutions.  If this message appears in the first     
 iteration of first substep, be sure to perform element shape checking.  
 *** LOAD STEP     1   SUBSTEP     1  NOT COMPLETED.  CUM ITER =      3
 *** BEGIN BISECTION NUMBER   1    NEW TIME INCREMENT=  0.35000    

  
 *************************************************
  SUMMARY FOR CONTACT PAIR IDENTIFIED BY REAL CONSTANT SET          10

 *** NOTE ***                            CP =      12.203   TIME= 18:35:13
 Contact pair is inactive.                                               
  

 *** NOTE ***                            CP =      12.203   TIME= 18:35:13
 One of the contact searching regions contains at least 78 target        
 elements.  You may reduce the pinball radius (current value             
 1.68741905E-03) for contact pair identified by real constant set 11 to  
 speed up contact searching.                                             
  
 *************************************************
  SUMMARY FOR CONTACT PAIR IDENTIFIED BY REAL CONSTANT SET          16

 *** NOTE ***                            CP =      12.203   TIME= 18:35:13
 Contact pair is inactive.                                               
  

 *** NOTE ***                            CP =      12.203   TIME= 18:35:13
 One of the contact searching regions contains at least 75 target        
 elements.  You may reduce the pinball radius (current value             
 9.81287234E-04) for contact pair identified by real constant set 17 to  
 speed up contact searching.                                             
  
 *************************************************
  SUMMARY FOR CONTACT PAIR IDENTIFIED BY REAL CONSTANT SET          18
 Max.  Penetration of -8.155461652E-31 has been detected between contact 
 element 16984 and target element 17059.                                 
  
 Max.  Geometrical gap of 6.938893904E-18 has been detected between      
 contact element 17002 and target element 17060.                         
  
 Max.  Geometrical penetration of -1.387778781E-17 has been detected     
 between contact element 17002 and target element 17060.                 
 For total 102 contact elements, there are 78 elements are in contact.   
 There are 78 elements are in sticking.                                  
 Contacting area 1.829999999E-05.                                        
 Max.  Pinball distance 8.529412044E-05.                                 
 One of the contact searching regions contains at least 5 target         
 elements.                                                               
 Max.  Pressure/force 7.686513056E-07.                                   
 Max.  Normal stiffness 1.744002773E+12.                                 
 Min.  Normal stiffness 1.744002773E+12.                                 
 Max.  Tangential stiffness 1.30800208E+11.                              
 Min.  Tangential stiffness 1.30800208E+11.                              
 *************************************************
  
 *************************************************
  SUMMARY FOR CONTACT PAIR IDENTIFIED BY REAL CONSTANT SET          19

 *** NOTE ***                            CP =      12.203   TIME= 18:35:13
 Contact pair is inactive.                                               
  
 *************************************************
  SUMMARY FOR CONTACT PAIR IDENTIFIED BY REAL CONSTANT SET          22

 *** NOTE ***                            CP =      12.203   TIME= 18:35:13
 Contact pair is inactive.                                               
  

 *** NOTE ***                            CP =      12.203   TIME= 18:35:13
 One of the contact searching regions contains at least 75 target        
 elements.  You may reduce the pinball radius (current value             
 1.070676041E-03) for contact pair identified by real constant set 23    
 to speed up contact searching.                                          

 Range of element maximum matrix coefficients in global coordinates
 Maximum = 401139602 at element 8522.                                    
 Minimum = 21889.7467 at element 17045.                                  
     FORCE CONVERGENCE VALUE  =  0.2595E+05  CRITERION=   132.4    

 DISTRIBUTED SPARSE MATRIX DIRECT SOLVER.
  Number of equations =      139845,    Maximum wavefront =    261

  Local memory allocated for solver              =    548.186 MB
  Local memory required for in-core solution     =    526.190 MB
  Local memory required for out-of-core solution =    216.777 MB

  Total memory allocated for solver              =   1051.783 MB
  Total memory required for in-core solution     =   1009.733 MB
  Total memory required for out-of-core solution =    422.903 MB

 *** NOTE ***                            CP =      12.875   TIME= 18:35:14
 The Distributed Sparse Matrix Solver is currently running in the        
 in-core memory mode.  This memory mode uses the most amount of memory   
 in order to avoid using the hard drive as much as possible, which most  
 often results in the fastest solution time.  This mode is recommended   
 if enough physical memory is present to accommodate all of the solver   
 data.                                                                   
 Distributed sparse solver maximum pivot= 1.604558405E+09 at node 44116  
 UX.                                                                     
 Distributed sparse solver minimum pivot= -5.844049156E-08 at node 4411  
 UX.                                                                     
 Distributed sparse solver minimum pivot in absolute value=              
 2.123350181E-09 at node 4402 UX.                                        

 *** WARNING ***                         CP =      15.609   TIME= 18:35:17
 There is at least 1 small equation solver pivot term (e.g., at the UX   
 degree of freedom of node 4402) which may indicate a numerically        
 unstable model.  Please check your results carefully.                   
     DISP CONVERGENCE VALUE   =  0.9368E-01  CRITERION=  0.4780E-02
    EQUIL ITER   1 COMPLETED.  NEW TRIANG MATRIX.  MAX DOF INC=  0.9368E-01
     DISP CONVERGENCE VALUE   =  0.4684E-02  CRITERION=  0.4877E-02 <<< CONVERGED
     LINE SEARCH PARAMETER =  0.5000E-01 SCALED MAX DOF INC =  0.4684E-02
     FORCE CONVERGENCE VALUE  =  0.4526E+06  CRITERION=   128.3    
    EQUIL ITER   2 COMPLETED.  NEW TRIANG MATRIX.  MAX DOF INC=  0.1583E-01

 *** ERROR ***                           CP =      20.750   TIME= 18:35:22
 Element 536 (type = 6, SOLID186) (and maybe other elements) has become  
 highly distorted.  Excessive distortion of elements is usually a        
 symptom indicating the need for corrective action elsewhere.  Try       
 incrementing the load more slowly (increase the number of substeps or   
 decrease the time step size).  You may need to improve your mesh to     
 obtain elements with better aspect ratios.  Also consider the behavior  
 of materials, contact pairs, and/or constraint equations.  Please rule  
 out other root causes of this failure before attempting rezoning or     
 nonlinear adaptive solutions.  If this message appears in the first     
 iteration of first substep, be sure to perform element shape checking.  
[...]
     DISP CONVERGENCE VALUE   =  0.1460E-02  CRITERION=  0.1520E-02 <<< CONVERGED
     LINE SEARCH PARAMETER =  0.5000E-01 SCALED MAX DOF INC =  0.1460E-02
     FORCE CONVERGENCE VALUE  =  0.3072E+05  CRITERION=   36.67    
    EQUIL ITER   2 COMPLETED.  NEW TRIANG MATRIX.  MAX DOF INC= -0.1053E-02
     DISP CONVERGENCE VALUE   =  0.7154E-03  CRITERION=  0.1551E-02 <<< CONVERGED
     LINE SEARCH PARAMETER =  0.6794     SCALED MAX DOF INC = -0.7154E-03
     FORCE CONVERGENCE VALUE  =   3849.      CRITERION=   12.00    
    EQUIL ITER   3 COMPLETED.  NEW TRIANG MATRIX.  MAX DOF INC=  0.1009E-02
     DISP CONVERGENCE VALUE   =  0.4558E-03  CRITERION=  0.1582E-02 <<< CONVERGED
     LINE SEARCH PARAMETER =  0.4516     SCALED MAX DOF INC =  0.4558E-03
     FORCE CONVERGENCE VALUE  =   3197.      CRITERION=   6.713    
    EQUIL ITER   4 COMPLETED.  NEW TRIANG MATRIX.  MAX DOF INC=  0.2414E-03
     DISP CONVERGENCE VALUE   =  0.2395E-03  CRITERION=  0.1615E-02 <<< CONVERGED
     LINE SEARCH PARAMETER =  0.9921     SCALED MAX DOF INC =  0.2395E-03
     FORCE CONVERGENCE VALUE  =   477.4      CRITERION=  0.5383E-01
    EQUIL ITER   5 COMPLETED.  NEW TRIANG MATRIX.  MAX DOF INC=  0.1658E-03
     DISP CONVERGENCE VALUE   =  0.1404E-03  CRITERION=  0.1648E-02 <<< CONVERGED
     LINE SEARCH PARAMETER =  0.8468     SCALED MAX DOF INC =  0.1404E-03
     FORCE CONVERGENCE VALUE  =   284.3      CRITERION=  0.8872E-02
    EQUIL ITER   6 COMPLETED.  NEW TRIANG MATRIX.  MAX DOF INC=  0.1328E-03
     DISP CONVERGENCE VALUE   =  0.1175E-03  CRITERION=  0.1681E-02 <<< CONVERGED
     LINE SEARCH PARAMETER =  0.8852     SCALED MAX DOF INC =  0.1175E-03
     FORCE CONVERGENCE VALUE  =   215.9      CRITERION=  0.3492E-02
    EQUIL ITER   7 COMPLETED.  NEW TRIANG MATRIX.  MAX DOF INC=  0.9343E-04
     DISP CONVERGENCE VALUE   =  0.7997E-04  CRITERION=  0.1716E-02 <<< CONVERGED
     LINE SEARCH PARAMETER =  0.8560     SCALED MAX DOF INC =  0.7997E-04
     FORCE CONVERGENCE VALUE  =   146.6      CRITERION=  0.3538E-02
    EQUIL ITER   8 COMPLETED.  NEW TRIANG MATRIX.  MAX DOF INC=  0.1156E-03
     DISP CONVERGENCE VALUE   =  0.9498E-04  CRITERION=  0.1751E-02 <<< CONVERGED
     LINE SEARCH PARAMETER =  0.8215     SCALED MAX DOF INC =  0.9498E-04
     FORCE CONVERGENCE VALUE  =   159.8      CRITERION=  0.3644E-02
    EQUIL ITER   9 COMPLETED.  NEW TRIANG MATRIX.  MAX DOF INC=  0.2922E-03
     DISP CONVERGENCE VALUE   =  0.5808E-04  CRITERION=  0.1786E-02 <<< CONVERGED
     LINE SEARCH PARAMETER =  0.1988     SCALED MAX DOF INC =  0.5808E-04
     FORCE CONVERGENCE VALUE  =   141.2      CRITERION=  0.7435E-02
    EQUIL ITER  10 COMPLETED.  NEW TRIANG MATRIX.  MAX DOF INC=  0.5304E-04
     DISP CONVERGENCE VALUE   =  0.5304E-04  CRITERION=  0.1823E-02 <<< CONVERGED
     LINE SEARCH PARAMETER =   1.000     SCALED MAX DOF INC =  0.5304E-04
     FORCE CONVERGENCE VALUE  =   51.56      CRITERION=  0.7633E-02
    EQUIL ITER  11 COMPLETED.  NEW TRIANG MATRIX.  MAX DOF INC=  0.8683E-04
     DISP CONVERGENCE VALUE   =  0.7046E-04  CRITERION=  0.1860E-02 <<< CONVERGED
     LINE SEARCH PARAMETER =  0.8115     SCALED MAX DOF INC =  0.7046E-04
     FORCE CONVERGENCE VALUE  =   105.8      CRITERION=  0.7789E-02
    EQUIL ITER  12 COMPLETED.  NEW TRIANG MATRIX.  MAX DOF INC= -0.3798E-04
     DISP CONVERGENCE VALUE   =  0.3798E-04  CRITERION=  0.1898E-02 <<< CONVERGED
     LINE SEARCH PARAMETER =   1.000     SCALED MAX DOF INC = -0.3798E-04
     FORCE CONVERGENCE VALUE  =   28.65      CRITERION=  0.7956E-02
    EQUIL ITER  13 COMPLETED.  NEW TRIANG MATRIX.  MAX DOF INC=  0.8154E-04
     DISP CONVERGENCE VALUE   =  0.3496E-04  CRITERION=  0.1937E-02 <<< CONVERGED
     LINE SEARCH PARAMETER =  0.4287     SCALED MAX DOF INC =  0.3496E-04
     FORCE CONVERGENCE VALUE  =   46.18      CRITERION=  0.8115E-02
    EQUIL ITER  14 COMPLETED.  NEW TRIANG MATRIX.  MAX DOF INC=  0.5566E-04
     DISP CONVERGENCE VALUE   =  0.5566E-04  CRITERION=  0.1976E-02 <<< CONVERGED
     LINE SEARCH PARAMETER =   1.000     SCALED MAX DOF INC =  0.5566E-04
     FORCE CONVERGENCE VALUE  =   55.97      CRITERION=  0.8282E-02
    EQUIL ITER  15 COMPLETED.  NEW TRIANG MATRIX.  MAX DOF INC=  0.7391E-04
     DISP CONVERGENCE VALUE   =  0.2505E-04  CRITERION=  0.2017E-02 <<< CONVERGED
     LINE SEARCH PARAMETER =  0.3389     SCALED MAX DOF INC =  0.2505E-04
     FORCE CONVERGENCE VALUE  =   42.45      CRITERION=  0.8447E-02
    EQUIL ITER  16 COMPLETED.  NEW TRIANG MATRIX.  MAX DOF INC=  0.3676E-04
     DISP CONVERGENCE VALUE   =  0.3676E-04  CRITERION=  0.2058E-02 <<< CONVERGED
     LINE SEARCH PARAMETER =   1.000     SCALED MAX DOF INC =  0.3676E-04
     FORCE CONVERGENCE VALUE  =   25.76      CRITERION=  0.8622E-02
    EQUIL ITER  17 COMPLETED.  NEW TRIANG MATRIX.  MAX DOF INC=  0.3893E-04
     DISP CONVERGENCE VALUE   =  0.3893E-04  CRITERION=  0.2100E-02 <<< CONVERGED
     LINE SEARCH PARAMETER =   1.000     SCALED MAX DOF INC =  0.3893E-04
     FORCE CONVERGENCE VALUE  =   29.78      CRITERION=  0.8796E-02
    EQUIL ITER  18 COMPLETED.  NEW TRIANG MATRIX.  MAX DOF INC= -0.2637E-04
     DISP CONVERGENCE VALUE   =  0.2637E-04  CRITERION=  0.2143E-02 <<< CONVERGED
     LINE SEARCH PARAMETER =   1.000     SCALED MAX DOF INC = -0.2637E-04
     FORCE CONVERGENCE VALUE  =   13.81      CRITERION=  0.8977E-02
    EQUIL ITER  19 COMPLETED.  NEW TRIANG MATRIX.  MAX DOF INC=  0.3734E-04
     DISP CONVERGENCE VALUE   =  0.2674E-04  CRITERION=  0.2186E-02 <<< CONVERGED
     LINE SEARCH PARAMETER =  0.7160     SCALED MAX DOF INC =  0.2674E-04
     FORCE CONVERGENCE VALUE  =   18.16      CRITERION=  0.9163E-02
    EQUIL ITER  20 COMPLETED.  NEW TRIANG MATRIX.  MAX DOF INC= -0.2427E-04
     DISP CONVERGENCE VALUE   =  0.2427E-04  CRITERION=  0.2231E-02 <<< CONVERGED
     LINE SEARCH PARAMETER =   1.000     SCALED MAX DOF INC = -0.2427E-04
     FORCE CONVERGENCE VALUE  =   11.64      CRITERION=  0.9351E-02
    EQUIL ITER  21 COMPLETED.  NEW TRIANG MATRIX.  MAX DOF INC=  0.2886E-04
     DISP CONVERGENCE VALUE   =  0.1830E-04  CRITERION=  0.2277E-02 <<< CONVERGED
     LINE SEARCH PARAMETER =  0.6342     SCALED MAX DOF INC =  0.1830E-04
     FORCE CONVERGENCE VALUE  =   13.06      CRITERION=  0.9546E-02
    EQUIL ITER  22 COMPLETED.  NEW TRIANG MATRIX.  MAX DOF INC=  0.2404E-04
     DISP CONVERGENCE VALUE   =  0.2404E-04  CRITERION=  0.2323E-02 <<< CONVERGED
     LINE SEARCH PARAMETER =   1.000     SCALED MAX DOF INC =  0.2404E-04
     FORCE CONVERGENCE VALUE  =   11.68      CRITERION=  0.9741E-02
    EQUIL ITER  23 COMPLETED.  NEW TRIANG MATRIX.  MAX DOF INC=  0.3171E-04
     DISP CONVERGENCE VALUE   =  0.1502E-04  CRITERION=  0.2370E-02 <<< CONVERGED
     LINE SEARCH PARAMETER =  0.4737     SCALED MAX DOF INC =  0.1502E-04
     FORCE CONVERGENCE VALUE  =   9.451      CRITERION=  0.9943E-02
    EQUIL ITER  24 COMPLETED.  NEW TRIANG MATRIX.  MAX DOF INC=  0.1949E-04
     DISP CONVERGENCE VALUE   =  0.1949E-04  CRITERION=  0.2419E-02 <<< CONVERGED
     LINE SEARCH PARAMETER =   1.000     SCALED MAX DOF INC =  0.1949E-04
     FORCE CONVERGENCE VALUE  =   7.796      CRITERION=  0.1015E-01
    EQUIL ITER  25 COMPLETED.  NEW TRIANG MATRIX.  MAX DOF INC=  0.2824E-04
     DISP CONVERGENCE VALUE   =  0.1275E-04  CRITERION=  0.2419E-02 <<< CONVERGED
     LINE SEARCH PARAMETER =  0.4516     SCALED MAX DOF INC =  0.1275E-04
     FORCE CONVERGENCE VALUE  =   6.739      CRITERION=  0.1015E-01

 *** ERROR ***                           CP =     148.500   TIME= 18:37:58
 Solution not converged at time 0.1 (load step 1 substep 1).             
  Run terminated.                                                        
  
 *************************************************
  SUMMARY FOR CONTACT PAIR IDENTIFIED BY REAL CONSTANT SET          10

 *** NOTE ***                            CP =     148.500   TIME= 18:37:58
 Contact pair is inactive.                                               
  
 *************************************************
  SUMMARY FOR CONTACT PAIR IDENTIFIED BY REAL CONSTANT SET          11
 Max.  Penetration of -7.190595501E-10 has been detected between contact 
 element 16217 and target element 16096.                                 
  
 Max.  Geometrical gap of 3.242328251E-09 has been detected between      
 contact element 16215 and target element 16095.                         
 For total 8 contact elements, there are 8 elements are in contact.      
 There are 8 elements are in sticking.                                   
 Contacting area 1.320000978E-05.                                        
 Contact element 16217 has Max.  Elastic slip distance of                
 4.797526925E-09.                                                        
 Max.  Total sliding distance 4.797526925E-09.                           
 Max.  Pinball distance 1.68741905E-03.                                  
 One of the contact searching regions contains at least 18 target        
 elements.                                                               
 Max.  Pressure/force -51687.5933.                                       
 Max.  Friction stress/force 14750.7178.                                 
 Max.  Normal stiffness 1.594150546E+13.                                 
 Min.  Normal stiffness 1.594150546E+13.                                 
 Max.  Tangential stiffness 3.074650342E+12.                             
 Min.  Tangential stiffness 3.074650342E+12.                             
 *************************************************
  
 *************************************************
  SUMMARY FOR CONTACT PAIR IDENTIFIED BY REAL CONSTANT SET          16

 *** NOTE ***                            CP =     148.500   TIME= 18:37:58
 Contact pair is inactive.                                               
  
 *************************************************
  SUMMARY FOR CONTACT PAIR IDENTIFIED BY REAL CONSTANT SET          17
 Max.  Penetration of -5.406566732E-10 has been detected between contact 
 element 16834 and target element 16639.                                 
  
 Max.  Geometrical gap of 6.897087893E-09 has been detected between      
 contact element 16835 and target element 16677.                         
 For total 7 contact elements, there are 7 elements are in contact.      
 There are 7 elements are in sticking.                                   
 Contacting area 1.830001532E-05.                                        
 Contact element 16837 has Max.  Elastic slip distance of                
 1.04506008E-08.                                                         
 Max.  Total sliding distance 1.04506008E-08.                            
 Max.  Pinball distance 9.81287234E-04.                                  
 One of the contact searching regions contains at least 21 target        
 elements.                                                               
 Max.  Pressure/force -92883.037.                                        
 Max.  Friction stress/force 10555.3629.                                 
 Max.  Normal stiffness 1.346699337E+13.                                 
 Min.  Normal stiffness 1.346699337E+13.                                 
 Max.  Tangential stiffness 1.010024503E+12.                             
 Min.  Tangential stiffness 1.010024503E+12.                             
 *************************************************
  
 *************************************************
  SUMMARY FOR CONTACT PAIR IDENTIFIED BY REAL CONSTANT SET          18
 Max.  Penetration of -2.930847361E-10 has been detected between contact 
 element 17043 and target element 17060.                                 
  
 Max.  Geometrical gap of 9.89520467E-08 has been detected between       
 contact element 17047 and target element 17063.                         
 For total 102 contact elements, there are 78 elements are in contact.   
 There are 78 elements are in sticking.                                  
 Contacting area 1.830001707E-05.                                        
 Contact element 16995 has Max.  Elastic slip distance of                
 9.881204732E-08.                                                        
 Max.  Total sliding distance 9.881204732E-08.                           
 Max.  Pinball distance 8.529412044E-05.                                 
 One of the contact searching regions contains at least 4 target         
 elements.                                                               
 Max.  Pressure/force -86286.3206.                                       
 Max.  Friction stress/force 6462.31807.                                 
 Max.  Normal stiffness 8.720013736E+11.                                 
 Min.  Normal stiffness 8.720013736E+11.                                 
 Max.  Tangential stiffness 1.011632692E+11.                             
 Min.  Tangential stiffness 6.540010302E+10.                             
 *************************************************
  
 *************************************************
  SUMMARY FOR CONTACT PAIR IDENTIFIED BY REAL CONSTANT SET          19

 *** NOTE ***                            CP =     148.500   TIME= 18:37:58
 Contact pair is inactive.                                               
  
 *************************************************
  SUMMARY FOR CONTACT PAIR IDENTIFIED BY REAL CONSTANT SET          22

 *** NOTE ***                            CP =     148.500   TIME= 18:37:58
 Contact pair is inactive.                                               
  
 *************************************************
  SUMMARY FOR CONTACT PAIR IDENTIFIED BY REAL CONSTANT SET          23
 Max.  Penetration of -7.032498665E-10 has been detected between contact 
 element 17493 and target element 17372.                                 
  
 Max.  Geometrical gap of 4.577360471E-09 has been detected between      
 contact element 17489 and target element 17334.                         
 For total 8 contact elements, there are 8 elements are in contact.      
 There are 8 elements are in sticking.                                   
 Contacting area 1.830000381E-05.                                        
 Contact element 17487 has Max.  Elastic slip distance of                
 1.138593885E-08.                                                        
 Max.  Total sliding distance 1.138593885E-08.                           
 Max.  Pinball distance 1.070676041E-03.                                 
 One of the contact searching regions contains at least 21 target        
 elements.                                                               
 Max.  Pressure/force -72634.2452.                                       
 Max.  Friction stress/force 13550.5344.                                 
 Max.  Normal stiffness 1.58681506E+13.                                  
 Min.  Normal stiffness 1.58681506E+13.                                  
 Max.  Tangential stiffness 1.190111295E+12.                             
 Min.  Tangential stiffness 1.190111295E+12.                             
 *************************************************

 *** WARNING ***                         CP =     148.500   TIME= 18:37:58
 The unconverged solution (identified as time 1 substep 999999) is       
 output for analysis debug purposes.  Results should not be used for     
 any other purpose.                                                      




         R E S T A R T   I N F O R M A T I O N

 REASON FOR TERMINATION. . . . . . . . . .UNCONVERGED SOLUTION                    
 RESTART BY RE-RUNNING THE ANALYSIS

 ALL CURRENT ANSYS DATA WRITTEN TO FILE NAME= file.db
  FOR POSSIBLE RESUME FROM THIS POINT





 NUMBER OF WARNING MESSAGES ENCOUNTERED=          5
 NUMBER OF ERROR   MESSAGES ENCOUNTERED=          3



 ***** PROBLEM TERMINATED BY INDICATED ERROR(S) OR BY END OF INPUT DATA *****

+--------- D I S T R I B U T E D   A N S Y S   S T A T I S T I C S ------------+

Release: 2019 R3            Build: 19.5       Update: UP20190805   Platform: WINDOWS x64 
Date Run: 11/28/2020   Time: 18:38     Process ID: 25096
Operating System: Windows 10  (Build: 18363)

Processor Model: Intel(R) Core(TM) i5-4460  CPU @ 3.20GHz

Compiler: Intel(R) FORTRAN Compiler Version 17.0.6  (Build: 20171215)
          Intel(R) C/C++ Compiler Version 17.0.6  (Build: 20171215)
          Intel(R) Math Kernel Library Version 2017.0.3 Product Build 20170413

Number of machines requested            :    1
Total number of cores available         :    4
Number of physical cores available      :    4
Number of processes requested           :    2
Number of threads per process requested :    1
Total number of cores requested         :    2 (Distributed Memory Parallel)               
MPI Type: INTELMPI
MPI Version: Intel(R) MPI Library 2018 Update 3 for Windows* OS


GPU Acceleration: Not Requested

Job Name: file0
Input File: dummy.dat

  Core                Machine Name   Working Directory
 -----------------------------------------------------
     0                   Daniel-PC   E:\Uni\Compliant_Code\_ProjectScratch\ScrB01D
     1                   Daniel-PC   E:\Uni\Compliant_Code\_ProjectScratch\ScrB01D
 
Latency time from master to core     1 =    1.232 microseconds
 
Communication speed from master to core     1 =  3276.84 MB/sec

Total CPU time for main thread                    :      149.3 seconds
Total CPU time summed for all threads             :      149.5 seconds

Elapsed time spent pre-processing model (/PREP7)  :        0.1 seconds
Elapsed time spent solution - preprocessing       :        0.7 seconds
Elapsed time spent computing solution             :      178.8 seconds
Elapsed time spent solution - postprocessing      :        1.7 seconds
Elapsed time spent post-processing model (/POST1) :        0.0 seconds
 
Equation solver used                              :            Sparse (symmetric)
Equation solver computational rate                :       31.9 Gflops
Equation solver effective I/O rate                :        8.4 GB/sec

Maximum total memory used                         :     1355.0 MB
Maximum total memory allocated                    :     3136.0 MB
Total physical memory available                   :          8 GB

Total amount of I/O written to disk               :        5.3 GB
Total amount of I/O read from disk                :        9.3 GB

+------ E N D   D I S T R I B U T E D   A N S Y S   S T A T I S T I C S -------+


 *---------------------------------------------------------------------------*
 |                                                                           |
 |                       DISTRIBUTED ANSYS RUN COMPLETED                     |
 |                                                                           |
 |---------------------------------------------------------------------------|
 |                                                                           |
 | Ansys 2019 R3               Build 19.5         UP20190805     WINDOWS x64 |
 |                                                                           |
 |---------------------------------------------------------------------------|
 |                                                                           |
 | Database Requested(-db)  1024 MB    Scratch Memory Requested      1024 MB |
 | Maximum Database Used      21 MB    Maximum Scratch Memory Used    693 MB |
 |                                                                           |
 |---------------------------------------------------------------------------|
 |                                                                           |
 |        CP Time      (sec) =        149.484       Time  =  18:38:04        |
 |        Elapsed Time (sec) =        186.000       Date  =  11/28/2020      |
 |                                                                           |
 *---------------------------------------------------------------------------*
