
 ANSYS Academic Teaching Advanced                  


 *------------------------------------------------------------------*
 |                                                                  |
 |   W E L C O M E   T O   T H E   A N S Y S (R)  P R O G R A M     |
 |                                                                  |
 *------------------------------------------------------------------*




 ***************************************************************
 *            ANSYS 2019 R3          LEGAL NOTICES             *
 ***************************************************************
 *                                                             *
 * Copyright 1971-2019 ANSYS, Inc.  All rights reserved.       *
 * Unauthorized use, distribution or duplication is            *
 * prohibited.                                                 *
 *                                                             *
 * Ansys is a registered trademark of ANSYS, Inc. or its       *
 * subsidiaries in the United States or other countries.       *
 * See the ANSYS, Inc. online documentation or the ANSYS, Inc. *
 * documentation CD or online help for the complete Legal      *
 * Notice.                                                     *
 *                                                             *
 ***************************************************************
 *                                                             *
 * THIS ANSYS SOFTWARE PRODUCT AND PROGRAM DOCUMENTATION       *
 * INCLUDE TRADE SECRETS AND CONFIDENTIAL AND PROPRIETARY      *
 * PRODUCTS OF ANSYS, INC., ITS SUBSIDIARIES, OR LICENSORS.    *
 * The software products and documentation are furnished by    *
 * ANSYS, Inc. or its subsidiaries under a software license    *
 * agreement that contains provisions concerning               *
 * non-disclosure, copying, length and nature of use,          *
 * compliance with exporting laws, warranties, disclaimers,    *
 * limitations of liability, and remedies, and other           *
 * provisions.  The software products and documentation may be *
 * used, disclosed, transferred, or copied only in accordance  *
 * with the terms and conditions of that software license      *
 * agreement.                                                  *
 *                                                             *
 * ANSYS, Inc. is a UL registered                              *
 * ISO 9001:2015 company.                                      *
 *                                                             *
 ***************************************************************
 *                                                             *
 * This product is subject to U.S. laws governing export and   *
 * re-export.                                                  *
 *                                                             *
 * For U.S. Government users, except as specifically granted   *
 * by the ANSYS, Inc. software license agreement, the use,     *
 * duplication, or disclosure by the United States Government  *
 * is subject to restrictions stated in the ANSYS, Inc.        *
 * software license agreement and FAR 12.212 (for non-DOD      *
 * licenses).                                                  *
 *                                                             *
 ***************************************************************

 2019 R3 
     
 Point Releases and Patches installed:   
     
 ANSYS, Inc. Products 2019 R3
 SpaceClaim 2019 R3  
 AIM 2019 R3 
 Live (includes SpaceClaim) 2019 R3  
 Autodyn 2019 R3 
 LS-DYNA 2019 R3 
 CFX (includes CFD-Post) 2019 R3 
 Chemkin 2019 R3 
 EnSight 2019 R3 
 FENSAP-ICE 2019 R3  
 Fluent (includes CFD-Post) 2019 R3  
 Forte 2019 R3   
 Polyflow (includes CFD-Post) 2019 R3
 TurboGrid 2019 R3   
 ICEM CFD 2019 R3
 Aqwa 2019 R3
 Mechanical Products 2019 R3 
 Additive 2019 R3
 Icepak (includes CFD-Post) 2019 R3  
 ACIS Geometry Interface 2019 R3 
 AutoCAD Geometry Interface 2019 R3  
 Catia, Version 4 Geometry Interface 2019 R3 
 Catia, Version 6 Geometry Interface 2019 R3 
 Creo Elements/Direct Modeling Geometry Interface 2019 R3
 Creo Parametric Geometry Interface 2019 R3  
 Inventor Geometry Interface 2019 R3 
 JTOpen Geometry Interface 2019 R3   
 NX Geometry Interface 2019 R3   
 Parasolid Geometry Interface  2019 R3   
 Solid Edge Geometry Interface 2019 R3   
 SOLIDWORKS Geometry Interface 2019 R3   
 ANSYS, Inc. License Manager 2019 R3 


          *****  ANSYS COMMAND LINE ARGUMENTS  *****
  BATCH MODE REQUESTED (-b)    = NOLIST
  INPUT FILE COPY MODE (-c)    = COPY
  DISTRIBUTED MEMORY PARALLEL REQUESTED
       2 PARALLEL PROCESSES REQUESTED WITH SINGLE THREAD PER PROCESS
    TOTAL OF     2 CORES REQUESTED
  DESIGNXPLORER REQUESTED
  INPUT FILE NAME              = C:\Users\pedeb\Desktop\HTE\Compliant\Compliant_Code\_ProjectScratch\Scr2520\dummy.dat
  OUTPUT FILE NAME             = C:\Users\pedeb\Desktop\HTE\Compliant\Compliant_Code\_ProjectScratch\Scr2520\solve.out
  START-UP FILE MODE           = NOREAD
  STOP FILE MODE               = NOREAD

 RELEASE= 2019 R3              BUILD= 19.5      UP20190805   VERSION=WINDOWS x64 
 CURRENT JOBNAME=file0  23:03:07  NOV 24, 2020 CP=      0.266


 PARAMETER _DS_PROGRESS =     999.0000000    

 /INPUT FILE= ds.dat  LINE=       0



 *** NOTE ***                            CP =       0.422   TIME= 23:03:07
 The /CONFIG,NOELDB command is not valid in a Distributed ANSYS          
 solution.  Command is ignored.                                          

 *GET  _WALLSTRT  FROM  ACTI  ITEM=TIME WALL  VALUE=  23.0519444    

 TITLE= 
 FEM--Static Structural (B5)                                                   


 SET PARAMETER DIMENSIONS ON  _WB_PROJECTSCRATCH_DIR
  TYPE=STRI  DIMENSIONS=      248        1        1

 PARAMETER _WB_PROJECTSCRATCH_DIR(1) = C:\Users\pedeb\Desktop\HTE\Compliant\Compliant_Code\_ProjectScratch\Scr2520\

 SET PARAMETER DIMENSIONS ON  _WB_SOLVERFILES_DIR
  TYPE=STRI  DIMENSIONS=      248        1        1

 PARAMETER _WB_SOLVERFILES_DIR(1) = C:\Users\pedeb\Desktop\HTE\Compliant\Compliant_Code\FEM_files\dp0\SYS\MECH\

 SET PARAMETER DIMENSIONS ON  _WB_USERFILES_DIR
  TYPE=STRI  DIMENSIONS=      248        1        1

 PARAMETER _WB_USERFILES_DIR(1) = C:\Users\pedeb\Desktop\HTE\Compliant\Compliant_Code\FEM_files\user_files\
 --- Data in consistent NMM units. See Solving Units in the help system for more

 MPA UNITS SPECIFIED FOR INTERNAL    
  LENGTH      = MILLIMETERS (mm)
  MASS        = TONNE (Mg)
  TIME        = SECONDS (sec)
  TEMPERATURE = CELSIUS (C)
  TOFFSET     = 273.0
  FORCE       = NEWTON (N)
  HEAT        = MILLIJOULES (mJ)

 INPUT  UNITS ARE ALSO SET TO MPA 

 *** ANSYS - ENGINEERING ANALYSIS SYSTEM  RELEASE 2019 R3          19.5     ***
 DISTRIBUTED ANSYS Academic Teaching Advanced                  

 00429955  VERSION=WINDOWS x64   23:03:07  NOV 24, 2020 CP=      0.438

 FEM--Static Structural (B5)                                                   



          ***** ANSYS ANALYSIS DEFINITION (PREP7) *****
 *********** Nodes for the whole assembly ***********
 *********** Elements for Body 1 "v2" ***********
 *********** Send User Defined Coordinate System(s) ***********
 *********** Set Reference Temperature ***********
 *********** Send Materials ***********
 *********** Create Displacement Components For Use In Future MSUP Analysis ****
 *********** Fixed Supports ***********
 ******* Constant Zero Displacement X *******
 ******* Constant Zero Displacement Z *******
 *********** Create Displacement Tables and Functions ******


 ***** ROUTINE COMPLETED *****  CP =         0.609


 --- Number of total nodes = 18573
 --- Number of contact elements = 0
 --- Number of spring elements = 0
 --- Number of bearing elements = 0
 --- Number of solid elements = 3231
 --- Number of condensed parts = 0
 --- Number of total elements = 3231

 *GET  _WALLBSOL  FROM  ACTI  ITEM=TIME WALL  VALUE=  23.0519444    
 ****************************************************************************
 *************************    SOLUTION       ********************************
 ****************************************************************************

 *****  ANSYS SOLUTION ROUTINE  *****


 PERFORM A STATIC ANALYSIS
  THIS WILL BE A NEW ANALYSIS

 LARGE DEFORMATION ANALYSIS

 PARAMETER _THICKRATIO =     1.000000000    

 USE PRECONDITIONED CONJUGATE GRADIENT SOLVER
  CONVERGENCE TOLERANCE = 1.00000E-08
  MAXIMUM ITERATION     = NumNode*DofPerNode*  1.0000    

 CONTACT INFORMATION PRINTOUT LEVEL       1

 NLDIAG: Nonlinear diagnostics CONT option is set to ON. 
         Writing frequency : each ITERATION.

 DEFINE RESTART CONTROL FOR LOADSTEP LAST
 AT FREQUENCY OF LAST AND NUMBER FOR OVERWRITE IS    0
 ****************************************************
 ******************* SOLVE FOR LS 1 OF 3 ****************
 *** Set Displacements ***
 CMBLOCK read of NODE component _CM39UY_YP  completed

 SELECT      COMPONENT _CM39UY_YP                      

 SPECIFIED CONSTRAINT UY   FOR SELECTED NODES            1 TO       18573 BY           1
 SET ACCORDING TO TABLE PARAMETER = _LOADVARI39YP

 ALL SELECT   FOR ITEM=NODE COMPONENT=    
  IN RANGE         1 TO      18573 STEP          1

      18573  NODES (OF      18573  DEFINED) SELECTED BY NSEL  COMMAND.
 *** Component For All Non-Zero UY Displacements ***

 SELECT      COMPONENT _CM39UY_YP                      

 DEFINITION OF COMPONENT = _DISPNONZEROUY  ENTITY=NODE

 ALL SELECT   FOR ITEM=NODE COMPONENT=    
  IN RANGE         1 TO      18573 STEP          1

      18573  NODES (OF      18573  DEFINED) SELECTED BY NSEL  COMMAND.

 PRINTOUT RESUMED BY /GOP

 USE AUTOMATIC TIME STEPPING THIS LOAD STEP

 USE       1 SUBSTEPS INITIALLY THIS LOAD STEP FOR ALL  DEGREES OF FREEDOM
 FOR AUTOMATIC TIME STEPPING:
   USE     10 SUBSTEPS AS A MAXIMUM
   USE      1 SUBSTEPS AS A MINIMUM

 TIME=  1.0000    

 ERASE THE CURRENT DATABASE OUTPUT CONTROL TABLE.


 WRITE ALL  ITEMS TO THE DATABASE WITH A FREQUENCY OF NONE
   FOR ALL APPLICABLE ENTITIES

 WRITE NSOL ITEMS TO THE DATABASE WITH A FREQUENCY OF ALL 
   FOR ALL APPLICABLE ENTITIES

 WRITE RSOL ITEMS TO THE DATABASE WITH A FREQUENCY OF ALL 
   FOR ALL APPLICABLE ENTITIES

 WRITE EANG ITEMS TO THE DATABASE WITH A FREQUENCY OF ALL 
   FOR ALL APPLICABLE ENTITIES

 WRITE ETMP ITEMS TO THE DATABASE WITH A FREQUENCY OF ALL 
   FOR ALL APPLICABLE ENTITIES

 WRITE VENG ITEMS TO THE DATABASE WITH A FREQUENCY OF ALL 
   FOR ALL APPLICABLE ENTITIES

 WRITE STRS ITEMS TO THE DATABASE WITH A FREQUENCY OF ALL 
   FOR ALL APPLICABLE ENTITIES

 WRITE EPEL ITEMS TO THE DATABASE WITH A FREQUENCY OF ALL 
   FOR ALL APPLICABLE ENTITIES

 WRITE EPPL ITEMS TO THE DATABASE WITH A FREQUENCY OF ALL 
   FOR ALL APPLICABLE ENTITIES

 WRITE CONT ITEMS TO THE DATABASE WITH A FREQUENCY OF ALL 
   FOR ALL APPLICABLE ENTITIES

 *GET  ANSINTER_  FROM  ACTI  ITEM=INT        VALUE=  0.00000000    

 *IF  ANSINTER_                         ( =   0.00000     )  NE  
      0                                 ( =   0.00000     )  THEN    

 *ENDIF

 *** NOTE ***                            CP =       0.703   TIME= 23:03:07
 The automatic domain decomposition logic has selected the MESH domain   
 decomposition method with 2 processes per solution.                     

 *****  ANSYS SOLVE    COMMAND  *****

 *** WARNING ***                         CP =       0.703   TIME= 23:03:07
 Element shape checking is currently inactive.  Issue SHPP,ON or         
 SHPP,WARN to reactivate, if desired.                                    

 *** NOTE ***                            CP =       0.766   TIME= 23:03:07
 The model data was checked and warning messages were found.             
  Please review output or errors file (                                  
 C:\Users\pedeb\Desktop\HTE\Compliant\Compliant_Code\_ProjectScratch\Scr 
 r2520\file0.err ) for these warning messages.                           

 *** SELECTION OF ELEMENT TECHNOLOGIES FOR APPLICABLE ELEMENTS ***
      --- GIVE SUGGESTIONS AND RESET THE KEY OPTIONS ---

 ELEMENT TYPE    1 IS SOLID186. KEYOPT(2)=0 IS SUGGESTED AND HAS BEEN RESET.
  KEYOPT(1-12)=    0    0    0    0    0    0    0    0    0    0    0    0



 *** ANSYS - ENGINEERING ANALYSIS SYSTEM  RELEASE 2019 R3          19.5     ***
 DISTRIBUTED ANSYS Academic Teaching Advanced                  

 00429955  VERSION=WINDOWS x64   23:03:07  NOV 24, 2020 CP=      0.781

 FEM--Static Structural (B5)                                                   



                       S O L U T I O N   O P T I O N S

   PROBLEM DIMENSIONALITY. . . . . . . . . . . . .3-D                  
   DEGREES OF FREEDOM. . . . . . UX   UY   UZ  
   ANALYSIS TYPE . . . . . . . . . . . . . . . . .STATIC (STEADY-STATE)
   OFFSET TEMPERATURE FROM ABSOLUTE ZERO . . . . .  273.15    
   NONLINEAR GEOMETRIC EFFECTS . . . . . . . . . .ON
   EQUATION SOLVER OPTION. . . . . . . . . . . . .PCG                
      TOLERANCE. . . . . . . . . . . . . . . . . . 1.00000E-08
   NEWTON-RAPHSON OPTION . . . . . . . . . . . . .PROGRAM CHOSEN   
   GLOBALLY ASSEMBLED MATRIX . . . . . . . . . . .SYMMETRIC  

 *** NOTE ***                            CP =       0.781   TIME= 23:03:07
 This nonlinear analysis defaults to using the full Newton-Raphson       
 solution procedure.  This can be modified using the NROPT command.      

 *** NOTE ***                            CP =       0.781   TIME= 23:03:07
 The conditions for direct assembly have been met.  No .emat or .erot    
 files will be produced.                                                 

  
  
     D I S T R I B U T E D   D O M A I N   D E C O M P O S E R
  
  ...Number of elements: 3231
  ...Number of nodes:    18573
  ...Decompose to 2 CPU domains
  ...Element load balance ratio =     1.001


                      L O A D   S T E P   O P T I O N S

   LOAD STEP NUMBER. . . . . . . . . . . . . . . .     1
   TIME AT END OF THE LOAD STEP. . . . . . . . . .  1.0000    
   AUTOMATIC TIME STEPPING . . . . . . . . . . . .    ON
      INITIAL NUMBER OF SUBSTEPS . . . . . . . . .     1
      MAXIMUM NUMBER OF SUBSTEPS . . . . . . . . .    10
      MINIMUM NUMBER OF SUBSTEPS . . . . . . . . .     1
   MAXIMUM NUMBER OF EQUILIBRIUM ITERATIONS. . . .    15
   STEP CHANGE BOUNDARY CONDITIONS . . . . . . . .    NO
   STRESS-STIFFENING . . . . . . . . . . . . . . .    ON
   TERMINATE ANALYSIS IF NOT CONVERGED . . . . . .YES (EXIT)  
   CONVERGENCE CONTROLS. . . . . . . . . . . . . .USE DEFAULTS
   PRINT OUTPUT CONTROLS . . . . . . . . . . . . .NO PRINTOUT
   DATABASE OUTPUT CONTROLS
      ITEM     FREQUENCY   COMPONENT
       ALL       NONE               
      NSOL        ALL               
      RSOL        ALL               
      EANG        ALL               
      ETMP        ALL               
      VENG        ALL               
      STRS        ALL               
      EPEL        ALL               
      EPPL        ALL               
      CONT        ALL               


 SOLUTION MONITORING INFO IS WRITTEN TO FILE= file.mntr                                                                                                                                                                                                                                                           


 *** NOTE ***                            CP =       1.094   TIME= 23:03:07
 The PCG solver has automatically set the level of difficulty for this   
 model to 2.                                                             


                         ***********  PRECISE MASS SUMMARY  ***********

   TOTAL RIGID BODY MASS MATRIX ABOUT ORIGIN
               Translational mass               |   Coupled translational/rotational mass
        0.43805E-04    0.0000        0.0000     |     0.0000       0.10951E-03  -0.11595E-02
         0.0000       0.43805E-04    0.0000     |   -0.10951E-03    0.0000       0.69190E-03
         0.0000        0.0000       0.43805E-04 |    0.11595E-02  -0.69190E-03    0.0000    
     ------------------------------------------ | ------------------------------------------
                                                |         Rotational mass (inertia)
                                                |    0.47799E-01  -0.18334E-01  -0.17297E-02
                                                |   -0.18334E-01   0.18198E-01  -0.28987E-02
                                                |   -0.17297E-02  -0.28987E-02   0.65267E-01

   TOTAL MASS = 0.43805E-04
     The mass principal axes coincide with the global Cartesian axes

   CENTER OF MASS (X,Y,Z)=    15.795        26.469        2.5000    

   TOTAL INERTIA ABOUT CENTER OF MASS
        0.16835E-01  -0.19868E-04   0.12011E-17
       -0.19868E-04   0.69957E-02   0.62022E-17
        0.12011E-17   0.62022E-17   0.23648E-01
     The inertia principal axes coincide with the global Cartesian axes


  *** MASS SUMMARY BY ELEMENT TYPE ***

  TYPE      MASS
     1  0.438046E-04

 Range of element maximum matrix coefficients in global coordinates
 Maximum = 4595724.15 at element 2888.                                   
 Minimum = 76768.1496 at element 3143.                                   

   *** ELEMENT MATRIX FORMULATION TIMES
     TYPE    NUMBER   ENAME      TOTAL CP  AVE CP

        1      3231  SOLID186      0.953   0.000295
 Time at end of element matrix formulation CP = 1.75.                    

 ALL CURRENT ANSYS DATA WRITTEN TO FILE NAME= file.rdb
  FOR POSSIBLE RESUME FROM THIS POINT
     FORCE CONVERGENCE VALUE  =  0.3313E+07  CRITERION=  0.1690E+05
 curEqn=   6239  totEqn=   6239 Job CP sec=      1.938
      Factor Done= 100% Factor Wall sec=      0.107 rate=    1296.9 Mflops
 Iteration=     5 Ratio=  0.130800     Limit=  1.000000E-08 Wall=     0.0
 Iteration=    35 Ratio=  8.722831E-04 Limit=  1.000000E-08 Wall=     0.2
 Iteration=   145 Ratio=  2.598854E-06 Limit=  1.000000E-08 Wall=     0.9

 DISTRIBUTED PCG SOLVER SOLUTION CONVERGED

 DISTRIBUTED PCG SOLVER SOLUTION STATISTICS

   NUMBER OF DOMAINS   =          89
   NUMBER OF ITERATIONS=         514
   NUMBER OF EQUATIONS =       55719
   LEVEL OF CONVERGENCE=           1
   CALCULATED NORM     = 0.96601E-08
   SPECIFIED TOLERANCE = 0.10000E-07
   TOTAL CPU TIME (sec)=        3.47
   TOTAL WALL TIME(sec)=        3.61
   TOTAL MEMORY (GB)   =        0.04

     DISP CONVERGENCE VALUE   =   1.000      CRITERION=  0.5103E-01
    EQUIL ITER   1 COMPLETED.  NEW TRIANG MATRIX.  MAX DOF INC=  -1.000    
     FORCE CONVERGENCE VALUE  =   9350.      CRITERION=  0.9043E-01
     DISP CONVERGENCE VALUE   =  0.3251E-01  CRITERION=  0.5207E-01 <<< CONVERGED
    EQUIL ITER   2 COMPLETED.  NEW TRIANG MATRIX.  MAX DOF INC= -0.3251E-01
     FORCE CONVERGENCE VALUE  =   33.30      CRITERION=  0.8946E-01
     DISP CONVERGENCE VALUE   =  0.7301E-01  CRITERION=  0.5313E-01
    EQUIL ITER   3 COMPLETED.  NEW TRIANG MATRIX.  MAX DOF INC= -0.7301E-01
     FORCE CONVERGENCE VALUE  =   169.1      CRITERION=  0.9457E-01
     DISP CONVERGENCE VALUE   =  0.7451E-02  CRITERION=  0.5422E-01 <<< CONVERGED
    EQUIL ITER   4 COMPLETED.  NEW TRIANG MATRIX.  MAX DOF INC=  0.7451E-02
     FORCE CONVERGENCE VALUE  =  0.9271      CRITERION=  0.9636E-01
     DISP CONVERGENCE VALUE   =  0.4333      CRITERION=  0.5532E-01
    EQUIL ITER   5 COMPLETED.  NEW TRIANG MATRIX.  MAX DOF INC=  0.4333    
     FORCE CONVERGENCE VALUE  =   2204.      CRITERION=  0.9601E-01
    >>> SOLUTION PATTERNS SHOW DIVERGENCE AT ITERATION =   6
 *** LOAD STEP     1   SUBSTEP     1  NOT COMPLETED.  CUM ITER =      6
 *** BEGIN BISECTION NUMBER   1    NEW TIME INCREMENT=  0.45000    


 Range of element maximum matrix coefficients in global coordinates
 Maximum = 4595724.15 at element 2888.                                   
 Minimum = 76768.1496 at element 3143.                                   
     FORCE CONVERGENCE VALUE  =  0.1491E+07  CRITERION=   7606.    
     DISP CONVERGENCE VALUE   =  0.4501      CRITERION=  0.2296E-01
    EQUIL ITER   1 COMPLETED.  NEW TRIANG MATRIX.  MAX DOF INC= -0.4501    
     FORCE CONVERGENCE VALUE  =   1892.      CRITERION=  0.4069E-01
     DISP CONVERGENCE VALUE   =  0.6390E-02  CRITERION=  0.2343E-01 <<< CONVERGED
    EQUIL ITER   2 COMPLETED.  NEW TRIANG MATRIX.  MAX DOF INC= -0.6390E-02
     FORCE CONVERGENCE VALUE  =   1.357      CRITERION=  0.4122E-01
     DISP CONVERGENCE VALUE   =  0.1384      CRITERION=  0.2391E-01
    EQUIL ITER   3 COMPLETED.  NEW TRIANG MATRIX.  MAX DOF INC=  0.1384    
     FORCE CONVERGENCE VALUE  =   243.6      CRITERION=  0.4189E-01
     DISP CONVERGENCE VALUE   =  0.7852E-03  CRITERION=  0.2440E-01 <<< CONVERGED
    EQUIL ITER   4 COMPLETED.  NEW TRIANG MATRIX.  MAX DOF INC= -0.7852E-03
     FORCE CONVERGENCE VALUE  =  0.4289E-01  CRITERION=  0.4269E-01
     DISP CONVERGENCE VALUE   =  0.3491E-01  CRITERION=  0.2490E-01
    EQUIL ITER   5 COMPLETED.  NEW TRIANG MATRIX.  MAX DOF INC= -0.3491E-01
     FORCE CONVERGENCE VALUE  =   20.26      CRITERION=  0.4374E-01
     DISP CONVERGENCE VALUE   =  0.7213E-04  CRITERION=  0.2540E-01 <<< CONVERGED
    EQUIL ITER   6 COMPLETED.  NEW TRIANG MATRIX.  MAX DOF INC=  0.7213E-04
     FORCE CONVERGENCE VALUE  =  0.2518E-02  CRITERION=  0.4462E-01 <<< CONVERGED
    >>> SOLUTION CONVERGED AFTER EQUILIBRIUM ITERATION   6

   *** ELEMENT RESULT CALCULATION TIMES
     TYPE    NUMBER   ENAME      TOTAL CP  AVE CP

        1      3231  SOLID186      0.438   0.000135

   *** NODAL LOAD CALCULATION TIMES
     TYPE    NUMBER   ENAME      TOTAL CP  AVE CP

        1      3231  SOLID186      0.031   0.000010
 *** LOAD STEP     1   SUBSTEP     1  COMPLETED.    CUM ITER =     11
 *** TIME =  0.450000         TIME INC =  0.450000    
 *** AUTO TIME STEP:  NEXT TIME INC = 0.27500      DECREASED (FACTOR = 0.6111)

     FORCE CONVERGENCE VALUE  =   2485.      CRITERION=  0.6369E-01
     DISP CONVERGENCE VALUE   =  0.6629E-02  CRITERION=  0.2296E-01 <<< CONVERGED
    EQUIL ITER   1 COMPLETED.  NEW TRIANG MATRIX.  MAX DOF INC= -0.6629E-02
     FORCE CONVERGENCE VALUE  =   1.268      CRITERION=  0.6412E-01
     DISP CONVERGENCE VALUE   =  0.9806      CRITERION=  0.6046E-01
    EQUIL ITER   2 COMPLETED.  NEW TRIANG MATRIX.  MAX DOF INC=  0.9806    
     FORCE CONVERGENCE VALUE  =  0.1376E+05  CRITERION=  0.6069E-01
     DISP CONVERGENCE VALUE   =  0.3986E-01  CRITERION=  0.6183E-01 <<< CONVERGED
    EQUIL ITER   3 COMPLETED.  NEW TRIANG MATRIX.  MAX DOF INC= -0.3986E-01
     FORCE CONVERGENCE VALUE  =   43.74      CRITERION=  0.5856E-01
     DISP CONVERGENCE VALUE   =  0.5282E-01  CRITERION=  0.6309E-01 <<< CONVERGED
    EQUIL ITER   4 COMPLETED.  NEW TRIANG MATRIX.  MAX DOF INC= -0.5282E-01
     FORCE CONVERGENCE VALUE  =   74.78      CRITERION=  0.6006E-01
     DISP CONVERGENCE VALUE   =  0.1238      CRITERION=  0.6437E-01
    EQUIL ITER   5 COMPLETED.  NEW TRIANG MATRIX.  MAX DOF INC= -0.1238    
     FORCE CONVERGENCE VALUE  =   249.0      CRITERION=  0.6278E-01
    >>> SOLUTION PATTERNS SHOW DIVERGENCE AT ITERATION =   6
 *** LOAD STEP     1   SUBSTEP     2  NOT COMPLETED.  CUM ITER =     17
 *** BEGIN BISECTION NUMBER   1    NEW TIME INCREMENT=  0.10000    

     FORCE CONVERGENCE VALUE  =   685.4      CRITERION=  0.4831E-01
     DISP CONVERGENCE VALUE   =  0.1767E-02  CRITERION=  0.2296E-01 <<< CONVERGED
    EQUIL ITER   1 COMPLETED.  NEW TRIANG MATRIX.  MAX DOF INC= -0.1767E-02
     FORCE CONVERGENCE VALUE  =  0.9024E-01  CRITERION=  0.4917E-01
     DISP CONVERGENCE VALUE   =  0.4685E-01  CRITERION=  0.2343E-01
    EQUIL ITER   2 COMPLETED.  NEW TRIANG MATRIX.  MAX DOF INC=  0.4685E-01
     FORCE CONVERGENCE VALUE  =   24.24      CRITERION=  0.5006E-01
     DISP CONVERGENCE VALUE   =  0.1097E-03  CRITERION=  0.2391E-01 <<< CONVERGED
    EQUIL ITER   3 COMPLETED.  NEW TRIANG MATRIX.  MAX DOF INC= -0.1097E-03
     FORCE CONVERGENCE VALUE  =  0.2499E-03  CRITERION=  0.5108E-01 <<< CONVERGED
    >>> SOLUTION CONVERGED AFTER EQUILIBRIUM ITERATION   3
 *** LOAD STEP     1   SUBSTEP     2  COMPLETED.    CUM ITER =     19
 *** TIME =  0.550000         TIME INC =  0.100000    
 *** AUTO STEP TIME:  NEXT TIME INC = 0.10000      UNCHANGED

     FORCE CONVERGENCE VALUE  =   467.0      CRITERION=  0.5662E-01
     DISP CONVERGENCE VALUE   =  0.1217E-02  CRITERION=  0.2296E-01 <<< CONVERGED
    EQUIL ITER   1 COMPLETED.  NEW TRIANG MATRIX.  MAX DOF INC= -0.1217E-02
     FORCE CONVERGENCE VALUE  =  0.3555E-01  CRITERION=  0.5767E-01 <<< CONVERGED
    >>> SOLUTION CONVERGED AFTER EQUILIBRIUM ITERATION   1
 *** LOAD STEP     1   SUBSTEP     3  COMPLETED.    CUM ITER =     20
 *** TIME =  0.650000         TIME INC =  0.100000    
 *** AUTO TIME STEP:  NEXT TIME INC = 0.15000      INCREASED (FACTOR = 1.5000)

     FORCE CONVERGENCE VALUE  =   874.5      CRITERION=  0.6919E-01
     DISP CONVERGENCE VALUE   =  0.2287E-02  CRITERION=  0.2296E-01 <<< CONVERGED
    EQUIL ITER   1 COMPLETED.  NEW TRIANG MATRIX.  MAX DOF INC= -0.2287E-02
     FORCE CONVERGENCE VALUE  =  0.1285      CRITERION=  0.7043E-01
     DISP CONVERGENCE VALUE   =  0.1290      CRITERION=  0.2343E-01
    EQUIL ITER   2 COMPLETED.  NEW TRIANG MATRIX.  MAX DOF INC=  0.1290    
     FORCE CONVERGENCE VALUE  =   166.0      CRITERION=  0.7123E-01
     DISP CONVERGENCE VALUE   =  0.5733E-03  CRITERION=  0.2391E-01 <<< CONVERGED
    EQUIL ITER   3 COMPLETED.  NEW TRIANG MATRIX.  MAX DOF INC= -0.5733E-03
     FORCE CONVERGENCE VALUE  =  0.1376E-01  CRITERION=  0.7264E-01 <<< CONVERGED
    >>> SOLUTION CONVERGED AFTER EQUILIBRIUM ITERATION   3
 *** LOAD STEP     1   SUBSTEP     4  COMPLETED.    CUM ITER =     23
 *** TIME =  0.800000         TIME INC =  0.150000    
 *** AUTO TIME STEP:  NEXT TIME INC = 0.10000      DECREASED (FACTOR = 0.6667)

     FORCE CONVERGENCE VALUE  =   1375.      CRITERION=  0.7626E-01
     DISP CONVERGENCE VALUE   =  0.4034E-02  CRITERION=  0.2296E-01 <<< CONVERGED
    EQUIL ITER   1 COMPLETED.  NEW TRIANG MATRIX.  MAX DOF INC= -0.4034E-02
     FORCE CONVERGENCE VALUE  =  0.3022      CRITERION=  0.7738E-01
     DISP CONVERGENCE VALUE   =  0.4756E-02  CRITERION=  0.2343E-01 <<< CONVERGED
    EQUIL ITER   2 COMPLETED.  NEW TRIANG MATRIX.  MAX DOF INC= -0.4756E-02
     FORCE CONVERGENCE VALUE  =  0.6931      CRITERION=  0.7912E-01
     DISP CONVERGENCE VALUE   =  0.1189E-02  CRITERION=  0.2391E-01 <<< CONVERGED
    EQUIL ITER   3 COMPLETED.  NEW TRIANG MATRIX.  MAX DOF INC=  0.1189E-02
     FORCE CONVERGENCE VALUE  =  0.2304E-01  CRITERION=  0.8072E-01 <<< CONVERGED
    >>> SOLUTION CONVERGED AFTER EQUILIBRIUM ITERATION   3
 *** LOAD STEP     1   SUBSTEP     5  COMPLETED.    CUM ITER =     26
 *** TIME =  0.900000         TIME INC =  0.100000    
 *** AUTO STEP TIME:  NEXT TIME INC = 0.10000      UNCHANGED

     FORCE CONVERGENCE VALUE  =   1074.      CRITERION=  0.8359E-01
     DISP CONVERGENCE VALUE   =  0.3224E-02  CRITERION=  0.2296E-01 <<< CONVERGED
    EQUIL ITER   1 COMPLETED.  NEW TRIANG MATRIX.  MAX DOF INC= -0.3224E-02
     FORCE CONVERGENCE VALUE  =  0.1862      CRITERION=  0.8498E-01
     DISP CONVERGENCE VALUE   =  0.7457E-01  CRITERION=  0.2343E-01
    EQUIL ITER   2 COMPLETED.  NEW TRIANG MATRIX.  MAX DOF INC=  0.7457E-01
     FORCE CONVERGENCE VALUE  =   59.46      CRITERION=  0.8611E-01
     DISP CONVERGENCE VALUE   =  0.2548E-03  CRITERION=  0.2391E-01 <<< CONVERGED
    EQUIL ITER   3 COMPLETED.  NEW TRIANG MATRIX.  MAX DOF INC= -0.2548E-03
     FORCE CONVERGENCE VALUE  =  0.2631E-02  CRITERION=  0.8786E-01 <<< CONVERGED
    >>> SOLUTION CONVERGED AFTER EQUILIBRIUM ITERATION   3
 *** LOAD STEP     1   SUBSTEP     6  COMPLETED.    CUM ITER =     29
 *** TIME =   1.00000         TIME INC =  0.100000    

 *** NOTE ***                            CP =     249.438   TIME= 23:07:16
 During this loadstep the PCG iterative solver took more than 1000       
 iterations to solve the system of equations.  In the future it may be   
 more efficient to choose a direct solver, such as the SPARSE solver,    
 for this analysis.                                                      


 *** ANSYS BINARY FILE STATISTICS
  BUFFER SIZE USED= 16384
       10.625 MB WRITTEN ON ELEMENT SAVED DATA FILE: file0.esav
        8.812 MB WRITTEN ON RESULTS FILE: file0.rst
 *************** Write FE CONNECTORS *********

 WRITE OUT CONSTRAINT EQUATIONS TO FILE= file.ce                                                                                                                                                                                                                                                             
 ****************************************************
 *************** FINISHED SOLVE FOR LS 1 *************
 ****************************************************
 ******************* SOLVE FOR LS 2 OF 3 ****************
 *** Set Displacements ***

 PRINTOUT RESUMED BY /GOP

 USE AUTOMATIC TIME STEPPING THIS LOAD STEP

 USE       1 SUBSTEPS INITIALLY THIS LOAD STEP FOR ALL  DEGREES OF FREEDOM
 FOR AUTOMATIC TIME STEPPING:
   USE     10 SUBSTEPS AS A MAXIMUM
   USE      1 SUBSTEPS AS A MINIMUM

 TIME=  2.0000    

 ERASE THE CURRENT DATABASE OUTPUT CONTROL TABLE.


 WRITE ALL  ITEMS TO THE DATABASE WITH A FREQUENCY OF NONE
   FOR ALL APPLICABLE ENTITIES

 WRITE NSOL ITEMS TO THE DATABASE WITH A FREQUENCY OF ALL 
   FOR ALL APPLICABLE ENTITIES

 WRITE RSOL ITEMS TO THE DATABASE WITH A FREQUENCY OF ALL 
   FOR ALL APPLICABLE ENTITIES

 WRITE EANG ITEMS TO THE DATABASE WITH A FREQUENCY OF ALL 
   FOR ALL APPLICABLE ENTITIES

 WRITE ETMP ITEMS TO THE DATABASE WITH A FREQUENCY OF ALL 
   FOR ALL APPLICABLE ENTITIES

 WRITE VENG ITEMS TO THE DATABASE WITH A FREQUENCY OF ALL 
   FOR ALL APPLICABLE ENTITIES

 WRITE STRS ITEMS TO THE DATABASE WITH A FREQUENCY OF ALL 
   FOR ALL APPLICABLE ENTITIES

 WRITE EPEL ITEMS TO THE DATABASE WITH A FREQUENCY OF ALL 
   FOR ALL APPLICABLE ENTITIES

 WRITE EPPL ITEMS TO THE DATABASE WITH A FREQUENCY OF ALL 
   FOR ALL APPLICABLE ENTITIES

 WRITE CONT ITEMS TO THE DATABASE WITH A FREQUENCY OF ALL 
   FOR ALL APPLICABLE ENTITIES

 *****  ANSYS SOLVE    COMMAND  *****

 *** NOTE ***                            CP =     249.484   TIME= 23:07:16
 This nonlinear analysis defaults to using the full Newton-Raphson       
 solution procedure.  This can be modified using the NROPT command.      

 *** ANSYS - ENGINEERING ANALYSIS SYSTEM  RELEASE 2019 R3          19.5     ***
 DISTRIBUTED ANSYS Academic Teaching Advanced                  

 00429955  VERSION=WINDOWS x64   23:07:16  NOV 24, 2020 CP=    249.500

 FEM--Static Structural (B5)                                                   



                      L O A D   S T E P   O P T I O N S

   LOAD STEP NUMBER. . . . . . . . . . . . . . . .     2
   TIME AT END OF THE LOAD STEP. . . . . . . . . .  2.0000    
   AUTOMATIC TIME STEPPING . . . . . . . . . . . .    ON
      INITIAL NUMBER OF SUBSTEPS . . . . . . . . .     1
      MAXIMUM NUMBER OF SUBSTEPS . . . . . . . . .    10
      MINIMUM NUMBER OF SUBSTEPS . . . . . . . . .     1
   MAXIMUM NUMBER OF EQUILIBRIUM ITERATIONS. . . .    15
   STEP CHANGE BOUNDARY CONDITIONS . . . . . . . .    NO
   STRESS-STIFFENING . . . . . . . . . . . . . . .    ON
   TERMINATE ANALYSIS IF NOT CONVERGED . . . . . .YES (EXIT)  
   CONVERGENCE CONTROLS. . . . . . . . . . . . . .USE DEFAULTS
   PRINT OUTPUT CONTROLS . . . . . . . . . . . . .NO PRINTOUT
   DATABASE OUTPUT CONTROLS
      ITEM     FREQUENCY   COMPONENT
       ALL       NONE               
      NSOL        ALL               
      RSOL        ALL               
      EANG        ALL               
      ETMP        ALL               
      VENG        ALL               
      STRS        ALL               
      EPEL        ALL               
      EPPL        ALL               
      CONT        ALL               


 SOLUTION MONITORING INFO IS WRITTEN TO FILE= file.mntr                                                                                                                                                                                                                                                           

     FORCE CONVERGENCE VALUE  =  0.3313E+07  CRITERION=  0.1690E+05
     DISP CONVERGENCE VALUE   =   2.799      CRITERION=  0.2095    
    EQUIL ITER   1 COMPLETED.  NEW TRIANG MATRIX.  MAX DOF INC=   2.799    
     FORCE CONVERGENCE VALUE  =  0.9412E+05  CRITERION=  0.1509    
     DISP CONVERGENCE VALUE   =  0.2872      CRITERION=  0.2137    
    EQUIL ITER   2 COMPLETED.  NEW TRIANG MATRIX.  MAX DOF INC= -0.2872    
     FORCE CONVERGENCE VALUE  =   1649.      CRITERION=  0.6166E-01

 *** WARNING ***                         CP =     351.031   TIME= 23:08:58
 The PCG solver detects that the stiffness matrix is ill-conditioned.    
 The solution has not converged.  Please check for rigid body motions    
 in your model.                                                          
                                                                         

 *** ERROR ***                           CP =     351.031   TIME= 23:08:58
 The preconditioned conjugate gradient solver failed with an error code  
 of 1.  Please check for an insufficiently constrained model.            
 Switching to the sparse direct solver may allow this nonlinear          
 analysis to continue beyond this point.                                 
    >>> NEGATIVE PIVOT ENCOUNTERED
 *** LOAD STEP     2   SUBSTEP     1  NOT COMPLETED.  CUM ITER =     32
 *** BEGIN BISECTION NUMBER   1    NEW TIME INCREMENT=  0.50000    

     FORCE CONVERGENCE VALUE  =  0.1656E+07  CRITERION=   8451.    
     DISP CONVERGENCE VALUE   =   1.391      CRITERION=  0.2095    
    EQUIL ITER   1 COMPLETED.  NEW TRIANG MATRIX.  MAX DOF INC=   1.391    
     FORCE CONVERGENCE VALUE  =  0.2311E+05  CRITERION=  0.1177    
     DISP CONVERGENCE VALUE   =  0.7130E-01  CRITERION=  0.2137     <<< CONVERGED
    EQUIL ITER   2 COMPLETED.  NEW TRIANG MATRIX.  MAX DOF INC= -0.7130E-01
     FORCE CONVERGENCE VALUE  =   98.54      CRITERION=  0.1027    
     DISP CONVERGENCE VALUE   =  0.1251E-01  CRITERION=  0.2181     <<< CONVERGED
    EQUIL ITER   3 COMPLETED.  NEW TRIANG MATRIX.  MAX DOF INC=  0.1251E-01
     FORCE CONVERGENCE VALUE  =   6.895      CRITERION=  0.1170    
     DISP CONVERGENCE VALUE   =  0.1192      CRITERION=  0.2225     <<< CONVERGED
    EQUIL ITER   4 COMPLETED.  NEW TRIANG MATRIX.  MAX DOF INC=  0.1192    
     FORCE CONVERGENCE VALUE  =   186.0      CRITERION=  0.1172    
    >>> SOLUTION PATTERNS SHOW DIVERGENCE AT ITERATION =   5
 *** LOAD STEP     2   SUBSTEP     1  NOT COMPLETED.  CUM ITER =     37
 *** BEGIN BISECTION NUMBER   2    NEW TIME INCREMENT=  0.22500    

     FORCE CONVERGENCE VALUE  =  0.7454E+06  CRITERION=   3803.    
     DISP CONVERGENCE VALUE   =  0.6176      CRITERION=  0.2095    
    EQUIL ITER   1 COMPLETED.  NEW TRIANG MATRIX.  MAX DOF INC=  0.6176    
     FORCE CONVERGENCE VALUE  =   4538.      CRITERION=  0.9946E-01
     DISP CONVERGENCE VALUE   =  0.1409E-01  CRITERION=  0.2137     <<< CONVERGED
    EQUIL ITER   2 COMPLETED.  NEW TRIANG MATRIX.  MAX DOF INC= -0.1409E-01
     FORCE CONVERGENCE VALUE  =   3.791      CRITERION=  0.9968E-01
     DISP CONVERGENCE VALUE   =   21.79      CRITERION=   1.055    
    EQUIL ITER   3 COMPLETED.  NEW TRIANG MATRIX.  MAX DOF INC=  -21.79    
     FORCE CONVERGENCE VALUE  =  0.2694E+08  CRITERION=  0.1366    
     DISP CONVERGENCE VALUE   =   737.8      CRITERION=   40.94    
    EQUIL ITER   4 COMPLETED.  NEW TRIANG MATRIX.  MAX DOF INC=   737.8    

 *** ERROR ***                           CP =     795.250   TIME= 23:16:23
 Element 2423 (type = 1, SOLID186) (and maybe other elements) has become 
 highly distorted.  Excessive distortion of elements is usually a        
 symptom indicating the need for corrective action elsewhere.  Try       
 incrementing the load more slowly (increase the number of substeps or   
 decrease the time step size).  You may need to improve your mesh to     
 obtain elements with better aspect ratios.  Also consider the behavior  
 of materials, contact pairs, and/or constraint equations.  Please rule  
 out other root causes of this failure before attempting rezoning or     
 nonlinear adaptive solutions.  If this message appears in the first     
 iteration of first substep, be sure to perform element shape checking.  
 *** LOAD STEP     2   SUBSTEP     1  NOT COMPLETED.  CUM ITER =     41
 *** BEGIN BISECTION NUMBER   3    NEW TIME INCREMENT=  0.10000    

     FORCE CONVERGENCE VALUE  =  0.3313E+06  CRITERION=   1690.    
     DISP CONVERGENCE VALUE   =  0.2658      CRITERION=   38.54     <<< CONVERGED
    EQUIL ITER   1 COMPLETED.  NEW TRIANG MATRIX.  MAX DOF INC=  0.2658    
     FORCE CONVERGENCE VALUE  =   837.7      CRITERION=  0.9117E-01
     DISP CONVERGENCE VALUE   =  0.2610E-02  CRITERION=   39.32     <<< CONVERGED
    EQUIL ITER   2 COMPLETED.  NEW TRIANG MATRIX.  MAX DOF INC= -0.2610E-02
     FORCE CONVERGENCE VALUE  =  0.1292      CRITERION=  0.9280E-01
     DISP CONVERGENCE VALUE   =  0.1884E-01  CRITERION=   40.13     <<< CONVERGED
    EQUIL ITER   3 COMPLETED.  NEW TRIANG MATRIX.  MAX DOF INC=  0.1884E-01
     FORCE CONVERGENCE VALUE  =   3.086      CRITERION=  0.9453E-01
     DISP CONVERGENCE VALUE   =  0.5235E-03  CRITERION=   40.94     <<< CONVERGED
    EQUIL ITER   4 COMPLETED.  NEW TRIANG MATRIX.  MAX DOF INC= -0.5235E-03
     FORCE CONVERGENCE VALUE  =  0.4327E-02  CRITERION=  0.9647E-01 <<< CONVERGED
    >>> SOLUTION CONVERGED AFTER EQUILIBRIUM ITERATION   4
 *** LOAD STEP     2   SUBSTEP     1  COMPLETED.    CUM ITER =     44
 *** TIME =   1.10000         TIME INC =  0.100000    
 *** AUTO STEP TIME:  NEXT TIME INC = 0.10000      UNCHANGED

     FORCE CONVERGENCE VALUE  =   1872.      CRITERION=  0.9526E-01
     DISP CONVERGENCE VALUE   =  0.5879E-02  CRITERION=   38.54     <<< CONVERGED
    EQUIL ITER   1 COMPLETED.  NEW TRIANG MATRIX.  MAX DOF INC= -0.5879E-02
     FORCE CONVERGENCE VALUE  =  0.5548      CRITERION=  0.9664E-01
     DISP CONVERGENCE VALUE   =  0.9139E-01  CRITERION=   39.32     <<< CONVERGED
    EQUIL ITER   2 COMPLETED.  NEW TRIANG MATRIX.  MAX DOF INC=  0.9139E-01
     FORCE CONVERGENCE VALUE  =   96.18      CRITERION=  0.9754E-01
     DISP CONVERGENCE VALUE   =  0.5535E-03  CRITERION=   40.13     <<< CONVERGED
    EQUIL ITER   3 COMPLETED.  NEW TRIANG MATRIX.  MAX DOF INC= -0.5535E-03
     FORCE CONVERGENCE VALUE  =  0.5704E-02  CRITERION=  0.9951E-01 <<< CONVERGED
    >>> SOLUTION CONVERGED AFTER EQUILIBRIUM ITERATION   3
 *** LOAD STEP     2   SUBSTEP     2  COMPLETED.    CUM ITER =     47
 *** TIME =   1.20000         TIME INC =  0.100000    
 *** AUTO TIME STEP:  NEXT TIME INC = 0.15000      INCREASED (FACTOR = 1.5000)

     FORCE CONVERGENCE VALUE  =   6088.      CRITERION=  0.1007    
     DISP CONVERGENCE VALUE   =  0.1917E-01  CRITERION=   38.54     <<< CONVERGED
    EQUIL ITER   1 COMPLETED.  NEW TRIANG MATRIX.  MAX DOF INC= -0.1917E-01
     FORCE CONVERGENCE VALUE  =   6.132      CRITERION=  0.1008    

 *** WARNING ***                         CP =     967.359   TIME= 23:19:15
 The PCG solver detects that the stiffness matrix is ill-conditioned.    
 The solution has not converged.  Please check for rigid body motions    
 in your model.                                                          
                                                                         

 *** ERROR ***                           CP =     967.359   TIME= 23:19:15
 The preconditioned conjugate gradient solver failed with an error code  
 of 1.  Please check for an insufficiently constrained model.            
 Switching to the sparse direct solver may allow this nonlinear          
 analysis to continue beyond this point.                                 
    >>> NEGATIVE PIVOT ENCOUNTERED
 *** LOAD STEP     2   SUBSTEP     3  NOT COMPLETED.  CUM ITER =     49
 *** BEGIN BISECTION NUMBER   1    NEW TIME INCREMENT=  0.10000    

     FORCE CONVERGENCE VALUE  =  0.3313E+06  CRITERION=   1690.    
     DISP CONVERGENCE VALUE   =  0.2832      CRITERION=   38.54     <<< CONVERGED
    EQUIL ITER   1 COMPLETED.  NEW TRIANG MATRIX.  MAX DOF INC=  0.2832    
     FORCE CONVERGENCE VALUE  =   856.1      CRITERION=  0.1013    
     DISP CONVERGENCE VALUE   =  0.2771E-02  CRITERION=   39.32     <<< CONVERGED
    EQUIL ITER   2 COMPLETED.  NEW TRIANG MATRIX.  MAX DOF INC= -0.2771E-02
     FORCE CONVERGENCE VALUE  =  0.1277      CRITERION=  0.1031    
     DISP CONVERGENCE VALUE   =  0.9571E-02  CRITERION=   40.13     <<< CONVERGED
    EQUIL ITER   3 COMPLETED.  NEW TRIANG MATRIX.  MAX DOF INC=  0.9571E-02
     FORCE CONVERGENCE VALUE  =  0.7189      CRITERION=  0.1051    
     DISP CONVERGENCE VALUE   =  0.5176E-03  CRITERION=   40.94     <<< CONVERGED
    EQUIL ITER   4 COMPLETED.  NEW TRIANG MATRIX.  MAX DOF INC= -0.5176E-03
     FORCE CONVERGENCE VALUE  =  0.3685E-02  CRITERION=  0.1073     <<< CONVERGED
    >>> SOLUTION CONVERGED AFTER EQUILIBRIUM ITERATION   4
 *** LOAD STEP     2   SUBSTEP     3  COMPLETED.    CUM ITER =     53
 *** TIME =   1.30000         TIME INC =  0.100000    
 *** AUTO STEP TIME:  NEXT TIME INC = 0.10000      UNCHANGED

     FORCE CONVERGENCE VALUE  =   1797.      CRITERION=  0.1043    
     DISP CONVERGENCE VALUE   =  0.5836E-02  CRITERION=   38.54     <<< CONVERGED
    EQUIL ITER   1 COMPLETED.  NEW TRIANG MATRIX.  MAX DOF INC= -0.5836E-02
     FORCE CONVERGENCE VALUE  =  0.4852      CRITERION=  0.1058    
     DISP CONVERGENCE VALUE   =  0.9800E-01  CRITERION=   39.32     <<< CONVERGED
    EQUIL ITER   2 COMPLETED.  NEW TRIANG MATRIX.  MAX DOF INC=  0.9800E-01
     FORCE CONVERGENCE VALUE  =   126.9      CRITERION=  0.1064    
     DISP CONVERGENCE VALUE   =  0.4587E-03  CRITERION=   40.13     <<< CONVERGED
    EQUIL ITER   3 COMPLETED.  NEW TRIANG MATRIX.  MAX DOF INC= -0.4587E-03
     FORCE CONVERGENCE VALUE  =  0.1157E-01  CRITERION=  0.1085     <<< CONVERGED
    >>> SOLUTION CONVERGED AFTER EQUILIBRIUM ITERATION   3
 *** LOAD STEP     2   SUBSTEP     4  COMPLETED.    CUM ITER =     56
 *** TIME =   1.40000         TIME INC =  0.100000    
 *** AUTO TIME STEP:  NEXT TIME INC = 0.15000      INCREASED (FACTOR = 1.5000)

     FORCE CONVERGENCE VALUE  =   6285.      CRITERION=  0.1069    
     DISP CONVERGENCE VALUE   =  0.2013E-01  CRITERION=   38.54     <<< CONVERGED
    EQUIL ITER   1 COMPLETED.  NEW TRIANG MATRIX.  MAX DOF INC= -0.2013E-01
     FORCE CONVERGENCE VALUE  =   6.440      CRITERION=  0.1072    

 *** WARNING ***                         CP =    1085.094   TIME= 23:21:13
 The PCG solver detects that the stiffness matrix is ill-conditioned.    
 The solution has not converged.  Please check for rigid body motions    
 in your model.                                                          
                                                                         

 *** ERROR ***                           CP =    1085.094   TIME= 23:21:13
 The preconditioned conjugate gradient solver failed with an error code  
 of 1.  Please check for an insufficiently constrained model.            
 Switching to the sparse direct solver may allow this nonlinear          
 analysis to continue beyond this point.                                 
    >>> NEGATIVE PIVOT ENCOUNTERED
 *** LOAD STEP     2   SUBSTEP     5  NOT COMPLETED.  CUM ITER =     58
 *** BEGIN BISECTION NUMBER   1    NEW TIME INCREMENT=  0.10000    

     FORCE CONVERGENCE VALUE  =  0.3313E+06  CRITERION=   1690.    
     DISP CONVERGENCE VALUE   =  0.3047      CRITERION=   38.54     <<< CONVERGED
    EQUIL ITER   1 COMPLETED.  NEW TRIANG MATRIX.  MAX DOF INC=  0.3047    
     FORCE CONVERGENCE VALUE  =   945.7      CRITERION=  0.1087    
     DISP CONVERGENCE VALUE   =  0.3109E-02  CRITERION=   39.32     <<< CONVERGED
    EQUIL ITER   2 COMPLETED.  NEW TRIANG MATRIX.  MAX DOF INC= -0.3109E-02
     FORCE CONVERGENCE VALUE  =  0.1527      CRITERION=  0.1106    
     DISP CONVERGENCE VALUE   =  0.1922E-02  CRITERION=   40.13     <<< CONVERGED
    EQUIL ITER   3 COMPLETED.  NEW TRIANG MATRIX.  MAX DOF INC= -0.1922E-02
     FORCE CONVERGENCE VALUE  =  0.7388E-01  CRITERION=  0.1129     <<< CONVERGED
    >>> SOLUTION CONVERGED AFTER EQUILIBRIUM ITERATION   3
 *** LOAD STEP     2   SUBSTEP     5  COMPLETED.    CUM ITER =     61
 *** TIME =   1.50000         TIME INC =  0.100000    
 *** AUTO STEP TIME:  NEXT TIME INC = 0.10000      UNCHANGED

     FORCE CONVERGENCE VALUE  =   1873.      CRITERION=  0.1104    
     DISP CONVERGENCE VALUE   =  0.6170E-02  CRITERION=   38.54     <<< CONVERGED
    EQUIL ITER   1 COMPLETED.  NEW TRIANG MATRIX.  MAX DOF INC= -0.6170E-02
     FORCE CONVERGENCE VALUE  =  0.5172      CRITERION=  0.1121    
     DISP CONVERGENCE VALUE   =  0.5532E-01  CRITERION=   39.32     <<< CONVERGED
    EQUIL ITER   2 COMPLETED.  NEW TRIANG MATRIX.  MAX DOF INC=  0.5532E-01
     FORCE CONVERGENCE VALUE  =   47.88      CRITERION=  0.1132    
     DISP CONVERGENCE VALUE   =  0.8447E-03  CRITERION=   40.13     <<< CONVERGED
    EQUIL ITER   3 COMPLETED.  NEW TRIANG MATRIX.  MAX DOF INC= -0.8447E-03
     FORCE CONVERGENCE VALUE  =  0.4247E-02  CRITERION=  0.1155     <<< CONVERGED
    >>> SOLUTION CONVERGED AFTER EQUILIBRIUM ITERATION   3
 *** LOAD STEP     2   SUBSTEP     6  COMPLETED.    CUM ITER =     64
 *** TIME =   1.60000         TIME INC =  0.100000    
 *** AUTO TIME STEP:  NEXT TIME INC = 0.15000      INCREASED (FACTOR = 1.5000)

     FORCE CONVERGENCE VALUE  =   5147.      CRITERION=  0.1124    
     DISP CONVERGENCE VALUE   =  0.1667E-01  CRITERION=   38.54     <<< CONVERGED
    EQUIL ITER   1 COMPLETED.  NEW TRIANG MATRIX.  MAX DOF INC= -0.1667E-01
     FORCE CONVERGENCE VALUE  =   4.253      CRITERION=  0.1133    

 *** WARNING ***                         CP =    1259.562   TIME= 23:24:08
 The PCG solver detects that the stiffness matrix is ill-conditioned.    
 The solution has not converged.  Please check for rigid body motions    
 in your model.                                                          
                                                                         

 *** ERROR ***                           CP =    1259.562   TIME= 23:24:08
 The preconditioned conjugate gradient solver failed with an error code  
 of 1.  Please check for an insufficiently constrained model.            
 Switching to the sparse direct solver may allow this nonlinear          
 analysis to continue beyond this point.                                 
    >>> NEGATIVE PIVOT ENCOUNTERED
 *** LOAD STEP     2   SUBSTEP     7  NOT COMPLETED.  CUM ITER =     66
 *** BEGIN BISECTION NUMBER   1    NEW TIME INCREMENT=  0.10000    

     FORCE CONVERGENCE VALUE  =  0.3313E+06  CRITERION=   1690.    
     DISP CONVERGENCE VALUE   =  0.3132      CRITERION=   38.54     <<< CONVERGED
    EQUIL ITER   1 COMPLETED.  NEW TRIANG MATRIX.  MAX DOF INC=  0.3132    
     FORCE CONVERGENCE VALUE  =   978.3      CRITERION=  0.1142    
     DISP CONVERGENCE VALUE   =  0.3235E-02  CRITERION=   39.32     <<< CONVERGED
    EQUIL ITER   2 COMPLETED.  NEW TRIANG MATRIX.  MAX DOF INC= -0.3235E-02
     FORCE CONVERGENCE VALUE  =  0.1626      CRITERION=  0.1163    
     DISP CONVERGENCE VALUE   =  0.2759E-02  CRITERION=   40.13     <<< CONVERGED
    EQUIL ITER   3 COMPLETED.  NEW TRIANG MATRIX.  MAX DOF INC= -0.2759E-02
     FORCE CONVERGENCE VALUE  =  0.1258      CRITERION=  0.1187    
     DISP CONVERGENCE VALUE   =  0.2860E-03  CRITERION=   40.94     <<< CONVERGED
    EQUIL ITER   4 COMPLETED.  NEW TRIANG MATRIX.  MAX DOF INC=  0.2860E-03
     FORCE CONVERGENCE VALUE  =  0.1289E-02  CRITERION=  0.1211     <<< CONVERGED
    >>> SOLUTION CONVERGED AFTER EQUILIBRIUM ITERATION   4
 *** LOAD STEP     2   SUBSTEP     7  COMPLETED.    CUM ITER =     70
 *** TIME =   1.70000         TIME INC =  0.100000    
 *** AUTO STEP TIME:  NEXT TIME INC = 0.10000      UNCHANGED

     FORCE CONVERGENCE VALUE  =   1920.      CRITERION=  0.1147    
     DISP CONVERGENCE VALUE   =  0.6355E-02  CRITERION=   38.54     <<< CONVERGED
    EQUIL ITER   1 COMPLETED.  NEW TRIANG MATRIX.  MAX DOF INC= -0.6355E-02
     FORCE CONVERGENCE VALUE  =  0.5446      CRITERION=  0.1165    
     DISP CONVERGENCE VALUE   =  0.1767E-01  CRITERION=   39.32     <<< CONVERGED
    EQUIL ITER   2 COMPLETED.  NEW TRIANG MATRIX.  MAX DOF INC=  0.1767E-01
     FORCE CONVERGENCE VALUE  =   4.852      CRITERION=  0.1186    
     DISP CONVERGENCE VALUE   =  0.1592E-02  CRITERION=   40.13     <<< CONVERGED
    EQUIL ITER   3 COMPLETED.  NEW TRIANG MATRIX.  MAX DOF INC= -0.1592E-02
     FORCE CONVERGENCE VALUE  =  0.3986E-01  CRITERION=  0.1210     <<< CONVERGED
    >>> SOLUTION CONVERGED AFTER EQUILIBRIUM ITERATION   3
 *** LOAD STEP     2   SUBSTEP     8  COMPLETED.    CUM ITER =     73
 *** TIME =   1.80000         TIME INC =  0.100000    
 *** AUTO STEP TIME:  NEXT TIME INC = 0.10000      UNCHANGED

     FORCE CONVERGENCE VALUE  =   2136.      CRITERION=  0.1161    
     DISP CONVERGENCE VALUE   =  0.6998E-02  CRITERION=   38.54     <<< CONVERGED
    EQUIL ITER   1 COMPLETED.  NEW TRIANG MATRIX.  MAX DOF INC= -0.6998E-02
     FORCE CONVERGENCE VALUE  =  0.6966      CRITERION=  0.1178    
     DISP CONVERGENCE VALUE   =  0.3086E-01  CRITERION=   39.32     <<< CONVERGED
    EQUIL ITER   2 COMPLETED.  NEW TRIANG MATRIX.  MAX DOF INC= -0.3086E-01
     FORCE CONVERGENCE VALUE  =   15.21      CRITERION=  0.1211    
     DISP CONVERGENCE VALUE   =  0.1382E-02  CRITERION=   40.13     <<< CONVERGED
    EQUIL ITER   3 COMPLETED.  NEW TRIANG MATRIX.  MAX DOF INC=  0.1382E-02
     FORCE CONVERGENCE VALUE  =  0.2979E-01  CRITERION=  0.1236     <<< CONVERGED
    >>> SOLUTION CONVERGED AFTER EQUILIBRIUM ITERATION   3
 *** LOAD STEP     2   SUBSTEP     9  COMPLETED.    CUM ITER =     76
 *** TIME =   1.90000         TIME INC =  0.100000    
 *** AUTO STEP TIME:  NEXT TIME INC = 0.10000      UNCHANGED

     FORCE CONVERGENCE VALUE  =   1718.      CRITERION=  0.1187    
     DISP CONVERGENCE VALUE   =  0.5710E-02  CRITERION=   38.54     <<< CONVERGED
    EQUIL ITER   1 COMPLETED.  NEW TRIANG MATRIX.  MAX DOF INC= -0.5710E-02
     FORCE CONVERGENCE VALUE  =  0.4303      CRITERION=  0.1206    
     DISP CONVERGENCE VALUE   =  0.2414E-01  CRITERION=   39.32     <<< CONVERGED
    EQUIL ITER   2 COMPLETED.  NEW TRIANG MATRIX.  MAX DOF INC=  0.2414E-01
     FORCE CONVERGENCE VALUE  =   9.259      CRITERION=  0.1226    
     DISP CONVERGENCE VALUE   =  0.1015E-02  CRITERION=   40.13     <<< CONVERGED
    EQUIL ITER   3 COMPLETED.  NEW TRIANG MATRIX.  MAX DOF INC= -0.1015E-02
     FORCE CONVERGENCE VALUE  =  0.1629E-01  CRITERION=  0.1251     <<< CONVERGED
    >>> SOLUTION CONVERGED AFTER EQUILIBRIUM ITERATION   3
 *** LOAD STEP     2   SUBSTEP    10  COMPLETED.    CUM ITER =     79
 *** TIME =   2.00000         TIME INC =  0.100000    
 ****************************************************
 *************** FINISHED SOLVE FOR LS 2 *************
 ****************************************************
 ******************* SOLVE FOR LS 3 OF 3 ****************
 *** Set Displacements ***

 PRINTOUT RESUMED BY /GOP

 USE AUTOMATIC TIME STEPPING THIS LOAD STEP

 USE INITIAL TIME STEP SIZE OF 0.2000000     FOR ALL  DEGREES OF FREEDOM
 FOR AUTOMATIC TIME STEPPING:
   USE 0.3846150E-01 AS THE MINIMUM TIME STEP SIZE
   USE  1.000000     AS THE MAXIMUM TIME STEP SIZE

 TIME=  3.0000    

 ERASE THE CURRENT DATABASE OUTPUT CONTROL TABLE.


 WRITE ALL  ITEMS TO THE DATABASE WITH A FREQUENCY OF NONE
   FOR ALL APPLICABLE ENTITIES

 WRITE NSOL ITEMS TO THE DATABASE WITH A FREQUENCY OF ALL 
   FOR ALL APPLICABLE ENTITIES

 WRITE RSOL ITEMS TO THE DATABASE WITH A FREQUENCY OF ALL 
   FOR ALL APPLICABLE ENTITIES

 WRITE EANG ITEMS TO THE DATABASE WITH A FREQUENCY OF ALL 
   FOR ALL APPLICABLE ENTITIES

 WRITE ETMP ITEMS TO THE DATABASE WITH A FREQUENCY OF ALL 
   FOR ALL APPLICABLE ENTITIES

 WRITE VENG ITEMS TO THE DATABASE WITH A FREQUENCY OF ALL 
   FOR ALL APPLICABLE ENTITIES

 WRITE STRS ITEMS TO THE DATABASE WITH A FREQUENCY OF ALL 
   FOR ALL APPLICABLE ENTITIES

 WRITE EPEL ITEMS TO THE DATABASE WITH A FREQUENCY OF ALL 
   FOR ALL APPLICABLE ENTITIES

 WRITE EPPL ITEMS TO THE DATABASE WITH A FREQUENCY OF ALL 
   FOR ALL APPLICABLE ENTITIES

 WRITE CONT ITEMS TO THE DATABASE WITH A FREQUENCY OF ALL 
   FOR ALL APPLICABLE ENTITIES

 *****  ANSYS SOLVE    COMMAND  *****

 *** NOTE ***                            CP =    1408.359   TIME= 23:26:37
 This nonlinear analysis defaults to using the full Newton-Raphson       
 solution procedure.  This can be modified using the NROPT command.      

 *** ANSYS - ENGINEERING ANALYSIS SYSTEM  RELEASE 2019 R3          19.5     ***
 DISTRIBUTED ANSYS Academic Teaching Advanced                  

 00429955  VERSION=WINDOWS x64   23:26:37  NOV 24, 2020 CP=   1408.391

 FEM--Static Structural (B5)                                                   



                      L O A D   S T E P   O P T I O N S

   LOAD STEP NUMBER. . . . . . . . . . . . . . . .     3
   TIME AT END OF THE LOAD STEP. . . . . . . . . .  3.0000    
   AUTOMATIC TIME STEPPING . . . . . . . . . . . .    ON
      STARTING TIME STEP SIZE. . . . . . . . . . . 0.20000    
      MINIMUM TIME STEP SIZE . . . . . . . . . . . 0.38461E-01
      MAXIMUM TIME STEP SIZE . . . . . . . . . . .  1.0000    
   MAXIMUM NUMBER OF EQUILIBRIUM ITERATIONS. . . .    15
   STEP CHANGE BOUNDARY CONDITIONS . . . . . . . .    NO
   STRESS-STIFFENING . . . . . . . . . . . . . . .    ON
   TERMINATE ANALYSIS IF NOT CONVERGED . . . . . .YES (EXIT)  
   CONVERGENCE CONTROLS. . . . . . . . . . . . . .USE DEFAULTS
   PRINT OUTPUT CONTROLS . . . . . . . . . . . . .NO PRINTOUT
   DATABASE OUTPUT CONTROLS
      ITEM     FREQUENCY   COMPONENT
       ALL       NONE               
      NSOL        ALL               
      RSOL        ALL               
      EANG        ALL               
      ETMP        ALL               
      VENG        ALL               
      STRS        ALL               
      EPEL        ALL               
      EPPL        ALL               
      CONT        ALL               


 SOLUTION MONITORING INFO IS WRITTEN TO FILE= file.mntr                                                                                                                                                                                                                                                           

     FORCE CONVERGENCE VALUE  =  0.6626E+06  CRITERION=   3381.    
     DISP CONVERGENCE VALUE   =  0.5787      CRITERION=   38.54     <<< CONVERGED
    EQUIL ITER   1 COMPLETED.  NEW TRIANG MATRIX.  MAX DOF INC=  0.5787    
     FORCE CONVERGENCE VALUE  =   3319.      CRITERION=  0.1239    
     DISP CONVERGENCE VALUE   =  0.1097E-01  CRITERION=   39.32     <<< CONVERGED
    EQUIL ITER   2 COMPLETED.  NEW TRIANG MATRIX.  MAX DOF INC= -0.1097E-01
     FORCE CONVERGENCE VALUE  =   1.875      CRITERION=  0.1255    
     DISP CONVERGENCE VALUE   =  0.2615      CRITERION=   40.13     <<< CONVERGED
    EQUIL ITER   3 COMPLETED.  NEW TRIANG MATRIX.  MAX DOF INC= -0.2615    
     FORCE CONVERGENCE VALUE  =   1102.      CRITERION=  0.1348    
     DISP CONVERGENCE VALUE   =  0.2573E-02  CRITERION=   40.94     <<< CONVERGED
    EQUIL ITER   4 COMPLETED.  NEW TRIANG MATRIX.  MAX DOF INC= -0.2573E-02
     FORCE CONVERGENCE VALUE  =  0.2117      CRITERION=  0.1373    
     DISP CONVERGENCE VALUE   =  0.3000      CRITERION=   41.78     <<< CONVERGED
    EQUIL ITER   5 COMPLETED.  NEW TRIANG MATRIX.  MAX DOF INC=  0.3000    
     FORCE CONVERGENCE VALUE  =   1444.      CRITERION=  0.1328    
    >>> SOLUTION PATTERNS SHOW DIVERGENCE AT ITERATION =   6
 *** LOAD STEP     3   SUBSTEP     1  NOT COMPLETED.  CUM ITER =     85
 *** BEGIN BISECTION NUMBER   1    NEW TIME INCREMENT=  0.90000E-01

     FORCE CONVERGENCE VALUE  =  0.2982E+06  CRITERION=   1521.    
     DISP CONVERGENCE VALUE   =  0.2589      CRITERION=   38.54     <<< CONVERGED
    EQUIL ITER   1 COMPLETED.  NEW TRIANG MATRIX.  MAX DOF INC=  0.2589    
     FORCE CONVERGENCE VALUE  =   658.4      CRITERION=  0.1219    
     DISP CONVERGENCE VALUE   =  0.2182E-02  CRITERION=   39.32     <<< CONVERGED
    EQUIL ITER   2 COMPLETED.  NEW TRIANG MATRIX.  MAX DOF INC= -0.2182E-02
     FORCE CONVERGENCE VALUE  =  0.7337E-01  CRITERION=  0.1242     <<< CONVERGED
    >>> SOLUTION CONVERGED AFTER EQUILIBRIUM ITERATION   2
 *** LOAD STEP     3   SUBSTEP     1  COMPLETED.    CUM ITER =     86
 *** TIME =   2.09000         TIME INC =  0.900000E-01
 *** AUTO STEP TIME:  NEXT TIME INC = 0.90000E-01  UNCHANGED

     FORCE CONVERGENCE VALUE  =   1316.      CRITERION=  0.1209    
     DISP CONVERGENCE VALUE   =  0.4364E-02  CRITERION=   38.54     <<< CONVERGED
    EQUIL ITER   1 COMPLETED.  NEW TRIANG MATRIX.  MAX DOF INC= -0.4364E-02
     FORCE CONVERGENCE VALUE  =  0.2564      CRITERION=  0.1230    
     DISP CONVERGENCE VALUE   =  0.1154E-01  CRITERION=   39.32     <<< CONVERGED
    EQUIL ITER   2 COMPLETED.  NEW TRIANG MATRIX.  MAX DOF INC= -0.1154E-01
     FORCE CONVERGENCE VALUE  =   1.071      CRITERION=  0.1258    
     DISP CONVERGENCE VALUE   =  0.5067E-03  CRITERION=   40.13     <<< CONVERGED
    EQUIL ITER   3 COMPLETED.  NEW TRIANG MATRIX.  MAX DOF INC=  0.5067E-03
     FORCE CONVERGENCE VALUE  =  0.4056E-02  CRITERION=  0.1283     <<< CONVERGED
    >>> SOLUTION CONVERGED AFTER EQUILIBRIUM ITERATION   3
 *** LOAD STEP     3   SUBSTEP     2  COMPLETED.    CUM ITER =     89
 *** TIME =   2.18000         TIME INC =  0.900000E-01
 *** AUTO TIME STEP:  NEXT TIME INC = 0.13500      INCREASED (FACTOR = 1.5000)

     FORCE CONVERGENCE VALUE  =   2317.      CRITERION=  0.1230    
     DISP CONVERGENCE VALUE   =  0.7628E-02  CRITERION=   38.54     <<< CONVERGED
    EQUIL ITER   1 COMPLETED.  NEW TRIANG MATRIX.  MAX DOF INC= -0.7628E-02
     FORCE CONVERGENCE VALUE  =  0.8286      CRITERION=  0.1249    
     DISP CONVERGENCE VALUE   =  0.1358E-01  CRITERION=   39.32     <<< CONVERGED
    EQUIL ITER   2 COMPLETED.  NEW TRIANG MATRIX.  MAX DOF INC= -0.1358E-01
     FORCE CONVERGENCE VALUE  =   2.977      CRITERION=  0.1279    
     DISP CONVERGENCE VALUE   =  0.2333E-02  CRITERION=   40.13     <<< CONVERGED
    EQUIL ITER   3 COMPLETED.  NEW TRIANG MATRIX.  MAX DOF INC=  0.2333E-02
     FORCE CONVERGENCE VALUE  =  0.8726E-01  CRITERION=  0.1305     <<< CONVERGED
    >>> SOLUTION CONVERGED AFTER EQUILIBRIUM ITERATION   3
 *** LOAD STEP     3   SUBSTEP     3  COMPLETED.    CUM ITER =     92
 *** TIME =   2.31500         TIME INC =  0.135000    
 *** AUTO TIME STEP:  NEXT TIME INC = 0.20250      INCREASED (FACTOR = 1.5000)

     FORCE CONVERGENCE VALUE  =   4845.      CRITERION=  0.1259    
     DISP CONVERGENCE VALUE   =  0.1600E-01  CRITERION=   38.54     <<< CONVERGED
    EQUIL ITER   1 COMPLETED.  NEW TRIANG MATRIX.  MAX DOF INC= -0.1600E-01
     FORCE CONVERGENCE VALUE  =   3.571      CRITERION=  0.1270    

 *** ERROR ***                           CP =    1711.141   TIME= 23:31:41
 The value of UX at node 2820 is 6.350448898E+29.  It is greater than    
 the current limit of 1000000 (which can be reset on the NCNV command).  
  This generally indicates rigid body motion as a result of an           
 unconstrained model.  Verify that your model is properly constrained.   

 *** ERROR ***                           CP =    1711.141   TIME= 23:31:41
 *** MESSAGE CONTINUATION ---- DIAGNOSTIC INFORMATION ***                
 Rigid body motion can also occur when net section yielding has          
 occurred resulting in large displacements for small increments of load  
 or when buckling has occurred.  You can plot the time history curve     
 for node 2820 in the UX direction to check for stiffness (slope of the  
 curve) approaching zero.                                                
    >>> DOF LIMIT EXCEEDED.  MAX VALUE= 0.6350449E+30  LIMIT=  0.000000    
        IT MAY BE DUE TO PREDICTOR IS ON. 
    PREDICTOR IS TURNED OFF FROM THIS POINT ONWARDS.
 *** LOAD STEP     3   SUBSTEP     4  NOT COMPLETED.  CUM ITER =     94
 *** RESTART TIME INCREMENT WITH PREDICTOR TURNED OFF

     FORCE CONVERGENCE VALUE  =  0.6709E+06  CRITERION=   3423.    
     DISP CONVERGENCE VALUE   =  0.5277      CRITERION=   38.54     <<< CONVERGED
    EQUIL ITER   1 COMPLETED.  NEW TRIANG MATRIX.  MAX DOF INC=  0.5277    
     FORCE CONVERGENCE VALUE  =   2709.      CRITERION=  0.1285    
     DISP CONVERGENCE VALUE   =  0.8971E-02  CRITERION=   39.32     <<< CONVERGED
    EQUIL ITER   2 COMPLETED.  NEW TRIANG MATRIX.  MAX DOF INC= -0.8971E-02
     FORCE CONVERGENCE VALUE  =   1.227      CRITERION=  0.1303    
     DISP CONVERGENCE VALUE   =  0.1163E-01  CRITERION=   40.13     <<< CONVERGED
    EQUIL ITER   3 COMPLETED.  NEW TRIANG MATRIX.  MAX DOF INC= -0.1163E-01
     FORCE CONVERGENCE VALUE  =   3.741      CRITERION=  0.1332    
     DISP CONVERGENCE VALUE   =  0.2692E-02  CRITERION=   40.94     <<< CONVERGED
    EQUIL ITER   4 COMPLETED.  NEW TRIANG MATRIX.  MAX DOF INC= -0.2692E-02
     FORCE CONVERGENCE VALUE  =  0.1225      CRITERION=  0.1359     <<< CONVERGED
    >>> SOLUTION CONVERGED AFTER EQUILIBRIUM ITERATION   4
 *** LOAD STEP     3   SUBSTEP     4  COMPLETED.    CUM ITER =     98
 *** TIME =   2.51750         TIME INC =  0.202500    
 *** AUTO TIME STEP:  NEXT TIME INC = 0.30375      INCREASED (FACTOR = 1.5000)

     FORCE CONVERGENCE VALUE  =  0.1007E+05  CRITERION=  0.1293    
     DISP CONVERGENCE VALUE   =  0.3304E-01  CRITERION=   38.54     <<< CONVERGED
    EQUIL ITER   1 COMPLETED.  NEW TRIANG MATRIX.  MAX DOF INC= -0.3304E-01
     FORCE CONVERGENCE VALUE  =   15.64      CRITERION=  0.1290    

 *** ERROR ***                           CP =    1902.000   TIME= 23:34:52
 The value of UX at node 4946 is 1.543151851E+23.  It is greater than    
 the current limit of 1000000 (which can be reset on the NCNV command).  
  This generally indicates rigid body motion as a result of an           
 unconstrained model.  Verify that your model is properly constrained.   

 *** ERROR ***                           CP =    1902.000   TIME= 23:34:52
 *** MESSAGE CONTINUATION ---- DIAGNOSTIC INFORMATION ***                
 Rigid body motion can also occur when net section yielding has          
 occurred resulting in large displacements for small increments of load  
 or when buckling has occurred.  You can plot the time history curve     
 for node 4946 in the UX direction to check for stiffness (slope of the  
 curve) approaching zero.                                                
    >>> DOF LIMIT EXCEEDED.  MAX VALUE= 0.1543152E+24  LIMIT=  0.000000    
        IT MAY BE DUE TO PREDICTOR IS ON. 
    PREDICTOR IS TURNED OFF FROM THIS POINT ONWARDS.
 *** LOAD STEP     3   SUBSTEP     5  NOT COMPLETED.  CUM ITER =    100
 *** RESTART TIME INCREMENT WITH PREDICTOR TURNED OFF

     FORCE CONVERGENCE VALUE  =  0.1006E+07  CRITERION=   5134.    
     DISP CONVERGENCE VALUE   =  0.7400      CRITERION=   38.54     <<< CONVERGED
    EQUIL ITER   1 COMPLETED.  NEW TRIANG MATRIX.  MAX DOF INC=  0.7400    
     FORCE CONVERGENCE VALUE  =   5249.      CRITERION=  0.1324    
     DISP CONVERGENCE VALUE   =  0.1741E-01  CRITERION=   39.32     <<< CONVERGED
    EQUIL ITER   2 COMPLETED.  NEW TRIANG MATRIX.  MAX DOF INC= -0.1741E-01
     FORCE CONVERGENCE VALUE  =   4.519      CRITERION=  0.1336    
     DISP CONVERGENCE VALUE   =  0.1502E-01  CRITERION=   40.13     <<< CONVERGED
    EQUIL ITER   3 COMPLETED.  NEW TRIANG MATRIX.  MAX DOF INC= -0.1502E-01
     FORCE CONVERGENCE VALUE  =   4.548      CRITERION=  0.1367    
     DISP CONVERGENCE VALUE   =  0.2440E-02  CRITERION=   40.94     <<< CONVERGED
    EQUIL ITER   4 COMPLETED.  NEW TRIANG MATRIX.  MAX DOF INC= -0.2440E-02
     FORCE CONVERGENCE VALUE  =  0.1030      CRITERION=  0.1396     <<< CONVERGED
    >>> SOLUTION CONVERGED AFTER EQUILIBRIUM ITERATION   4
 *** LOAD STEP     3   SUBSTEP     5  COMPLETED.    CUM ITER =    104
 *** TIME =   2.82125         TIME INC =  0.303750    
 *** AUTO TIME STEP:  NEXT TIME INC = 0.17875      DECREASED (FACTOR = 0.5885)

     FORCE CONVERGENCE VALUE  =   4820.      CRITERION=  0.1308    
     DISP CONVERGENCE VALUE   =  0.1587E-01  CRITERION=   38.54     <<< CONVERGED
    EQUIL ITER   1 COMPLETED.  NEW TRIANG MATRIX.  MAX DOF INC= -0.1587E-01
     FORCE CONVERGENCE VALUE  =   3.288      CRITERION=  0.1322    

 *** WARNING ***                         CP =    2134.312   TIME= 23:38:44
 The PCG solver detects that the stiffness matrix is ill-conditioned.    
 The solution has not converged.  Please check for rigid body motions    
 in your model.                                                          
                                                                         

 *** ERROR ***                           CP =    2134.312   TIME= 23:38:44
 The preconditioned conjugate gradient solver failed with an error code  
 of 1.  Please check for an insufficiently constrained model.            
 Switching to the sparse direct solver may allow this nonlinear          
 analysis to continue beyond this point.                                 
    >>> NEGATIVE PIVOT ENCOUNTERED
 *** LOAD STEP     3   SUBSTEP     6  NOT COMPLETED.  CUM ITER =    106
 *** BEGIN BISECTION NUMBER   1    NEW TIME INCREMENT=  0.89375E-01

     FORCE CONVERGENCE VALUE  =  0.2961E+06  CRITERION=   1511.    
     DISP CONVERGENCE VALUE   =  0.2021      CRITERION=   38.54     <<< CONVERGED
    EQUIL ITER   1 COMPLETED.  NEW TRIANG MATRIX.  MAX DOF INC=  0.2021    
     FORCE CONVERGENCE VALUE  =   391.1      CRITERION=  0.1325    
     DISP CONVERGENCE VALUE   =  0.1289E-02  CRITERION=   39.32     <<< CONVERGED
    EQUIL ITER   2 COMPLETED.  NEW TRIANG MATRIX.  MAX DOF INC= -0.1289E-02
     FORCE CONVERGENCE VALUE  =  0.2518E-01  CRITERION=  0.1351     <<< CONVERGED
    >>> SOLUTION CONVERGED AFTER EQUILIBRIUM ITERATION   2
 *** LOAD STEP     3   SUBSTEP     6  COMPLETED.    CUM ITER =    108
 *** TIME =   2.91062         TIME INC =  0.893750E-01
 *** AUTO STEP TIME:  NEXT TIME INC = 0.89375E-01  UNCHANGED

     FORCE CONVERGENCE VALUE  =   782.1      CRITERION=  0.1308    
     DISP CONVERGENCE VALUE   =  0.2576E-02  CRITERION=   38.54     <<< CONVERGED
    EQUIL ITER   1 COMPLETED.  NEW TRIANG MATRIX.  MAX DOF INC= -0.2576E-02
     FORCE CONVERGENCE VALUE  =  0.8787E-01  CRITERION=  0.1333     <<< CONVERGED
    >>> SOLUTION CONVERGED AFTER EQUILIBRIUM ITERATION   1
 *** LOAD STEP     3   SUBSTEP     7  COMPLETED.    CUM ITER =    109
 *** TIME =   3.00000         TIME INC =  0.893750E-01
 ****************************************************
 *************** FINISHED SOLVE FOR LS 3 *************

 *GET  _WALLASOL  FROM  ACTI  ITEM=TIME WALL  VALUE=  23.6538889    

 PRINTOUT RESUMED BY /GOP

 *GET  _PCGITER  FROM  ACTI  ITEM=SOLU CGIT  VALUE=  843.000000    

 FINISH SOLUTION PROCESSING


 ***** ROUTINE COMPLETED *****  CP =      2163.969



 *** ANSYS - ENGINEERING ANALYSIS SYSTEM  RELEASE 2019 R3          19.5     ***
 DISTRIBUTED ANSYS Academic Teaching Advanced                  

 00429955  VERSION=WINDOWS x64   23:39:14  NOV 24, 2020 CP=   2163.984

 FEM--Static Structural (B5)                                                   



          ***** ANSYS RESULTS INTERPRETATION (POST1) *****

 *** NOTE ***                            CP =    2163.984   TIME= 23:39:14
 Reading results into the database (SET command) will update the current 
 displacement and force boundary conditions in the database with the     
 values from the results file for that load set.  Note that any          
 subsequent solutions will use these values unless action is taken to    
 either SAVE the current values or not overwrite them (/EXIT,NOSAVE).    

 Set Encoding of XML File to:ISO-8859-1

 Set Output of XML File to:
     PARM,     ,     ,     ,     ,     ,     ,     ,     ,     ,     ,     ,
         ,     ,     ,     ,     ,     ,     ,

 DATABASE WRITTEN ON FILE  parm.xml                                                                                                                                                                                                                                                            

 EXIT THE ANSYS POST1 DATABASE PROCESSOR


 ***** ROUTINE COMPLETED *****  CP =      2164.000



 PRINTOUT RESUMED BY /GOP

 *GET  _WALLDONE  FROM  ACTI  ITEM=TIME WALL  VALUE=  23.6538889    

 PARAMETER _PREPTIME =     0.000000000    

 PARAMETER _SOLVTIME =     2167.000000    

 PARAMETER _POSTTIME =     0.000000000    

 PARAMETER _TOTALTIM =     2167.000000    

 *GET  _DLBRATIO  FROM  ACTI  ITEM=SOLU DLBR  VALUE=  1.00061920    

 *GET  _COMBTIME  FROM  ACTI  ITEM=SOLU COMB  VALUE= 0.347793900    
 --- Number of total nodes = 18573
 --- Number of total elements = 3231
 --- Element load balance ratio = 1.0006192
 --- Time to combine distributed files = 0.3477939

 EXIT ANSYS WITHOUT SAVING DATABASE


 NUMBER OF WARNING MESSAGES ENCOUNTERED=          6
 NUMBER OF ERROR   MESSAGES ENCOUNTERED=         10

 *** NOTE ***                            CP =    2164.188   TIME= 23:39:15
 The solution for the current simulation was performed using 2 cores.    
 The parallel performance of this simulation on this hardware indicates  
 that this simulation would benefit from using additional CPU cores.     
 Consider using more CPU cores, which may require additional HPC         
 licenses, when running this simulation again on the same hardware.      

+--------- D I S T R I B U T E D   A N S Y S   S T A T I S T I C S ------------+

Release: 2019 R3            Build: 19.5       Update: UP20190805   Platform: WINDOWS x64 
Date Run: 11/24/2020   Time: 23:39     Process ID: 27352
Operating System: Windows 10  (Build: 18363)

Processor Model: Intel(R) Core(TM) i7-6700HQ CPU @ 2.60GHz

Compiler: Intel(R) FORTRAN Compiler Version 17.0.6  (Build: 20171215)
          Intel(R) C/C++ Compiler Version 17.0.6  (Build: 20171215)
          Intel(R) Math Kernel Library Version 2017.0.3 Product Build 20170413

Number of machines requested            :    1
Total number of cores available         :    8
Number of physical cores available      :    4
Number of processes requested           :    2
Number of threads per process requested :    1
Total number of cores requested         :    2 (Distributed Memory Parallel)               
MPI Type: INTELMPI
MPI Version: Intel(R) MPI Library 2018 Update 3 for Windows* OS


GPU Acceleration: Not Requested

Job Name: file0
Input File: dummy.dat

  Core                Machine Name   Working Directory
 -----------------------------------------------------
     0                  PIM-Laptop   C:\Users\pedeb\Desktop\HTE\Compliant\Compliant_Code\_ProjectScratch\Scr2520
     1                  PIM-Laptop   C:\Users\pedeb\Desktop\HTE\Compliant\Compliant_Code\_ProjectScratch\Scr2520
 
Latency time from master to core     1 =    3.321 microseconds
 
Communication speed from master to core     1 =  2508.64 MB/sec

Total CPU time for main thread                    :     2163.7 seconds
Total CPU time summed for all threads             :     2164.2 seconds

Elapsed time spent pre-processing model (/PREP7)  :        0.1 seconds
Elapsed time spent solution - preprocessing       :        0.2 seconds
Elapsed time spent computing solution             :     2166.4 seconds
Elapsed time spent solution - postprocessing      :        0.3 seconds
Elapsed time spent post-processing model (/POST1) :        0.0 seconds
 
Equation solver used                              :            PCG (symmetric)
Equation solver computational rate                :        4.3 Gflops

Maximum total memory used                         :      176.0 MB
Maximum total memory allocated                    :     3136.0 MB
Total physical memory available                   :          8 GB

Total amount of I/O written to disk               :        5.5 GB
Total amount of I/O read from disk                :        6.0 GB

+------ E N D   D I S T R I B U T E D   A N S Y S   S T A T I S T I C S -------+


 *---------------------------------------------------------------------------*
 |                                                                           |
 |                       DISTRIBUTED ANSYS RUN COMPLETED                     |
 |                                                                           |
 |---------------------------------------------------------------------------|
 |                                                                           |
 | Ansys 2019 R3               Build 19.5         UP20190805     WINDOWS x64 |
 |                                                                           |
 |---------------------------------------------------------------------------|
 |                                                                           |
 | Database Requested(-db)  1024 MB    Scratch Memory Requested      1024 MB |
 | Maximum Database Used       9 MB    Maximum Scratch Memory Used     85 MB |
 |                                                                           |
 |---------------------------------------------------------------------------|
 |                                                                           |
 |        CP Time      (sec) =       2164.188       Time  =  23:39:15        |
 |        Elapsed Time (sec) =       2171.000       Date  =  11/24/2020      |
 |                                                                           |
 *---------------------------------------------------------------------------*
